data_indexed_1

_audit_creation_method RASPA-1.0
_audit_creation_date 2020-8-27
_audit_author_name 'sp1709'

_cell_length_a    51.0566
_cell_length_b    51.0566
_cell_length_c    51.0566
_cell_angle_alpha 60
_cell_angle_beta  60
_cell_angle_gamma 60
_cell_volume      94111.1

_symmetry_cell_setting          triclinic
_symmetry_space_group_name_Hall 'P 1'
_symmetry_space_group_name_H-M  'P 1'
_symmetry_Int_Tables_number     1

_symmetry_equiv_pos_as_xyz 'x,y,z'

loop_
_atom_site_label
_atom_site_type_symbol
_atom_site_fract_x
_atom_site_fract_y
_atom_site_fract_z
_atom_site_charge
Zn1      Zn+2   0.282779070000     0.399554650000     0.799399550000     1.18834    
Zn2      Zn+2   0.235379020000     0.350600000000     0.944838690000     1.19019    
Zn3      Zn+2   0.097472080000     0.400454100000     0.983555290000     1.17696    
O1       O      0.231832620000     0.452732940000     0.820341060000    -0.175776   
O2       O      0.309890330000     0.381668400000     0.847087660000    -0.152384   
O3       O      0.292158430000     0.365282960000     0.899093600000    -0.160387   
N1       N      0.256237250000     0.410360530000     0.775123710000    -0.291365   
N2       N      0.324103790000     0.368137070000     0.782991760000    -0.291758   
N3       N      0.294837010000     0.436823180000     0.788077220000    -0.280484   
N5       N      0.259187720000     0.379353130000     0.845552430000    -0.276216   
N6       N      0.289974490000     0.372510940000     0.873474440000    -0.0335081  
N7       N      0.240897620000     0.360691650000     0.899501400000    -0.281796   
N8       N      0.265512470000     0.309540770000     0.961630280000    -0.301839   
N9       N      0.235018060000     0.381455430000     0.957912140000    -0.284812   
N11      N      0.192812870000     0.346140150000     0.966427870000    -0.292387   
N12      N      0.138752890000     0.364930230000     0.980077040000    -0.299339   
N13      N      0.088776890000     0.426059180000     0.942631790000    -0.305558   
N14      N      0.102291940000     0.428424280000     0.996125000000    -0.299411   
N15      N      0.060061230000     0.387310960000     0.016455760000    -0.305313   
C2       C      0.252852930000     0.390712090000     0.766560000000     0.0547636  
C3       C      0.264893190000     0.358574040000     0.774500020000    -0.106924   
H3       H      0.278017230000     0.345595370000     0.787789360000     0.0407735  
C4       C      0.257303110000     0.345949210000     0.762506030000    -0.0206474  
H4       H      0.265407150000     0.323394260000     0.767207670000     0.0303483  
C6       C      0.342179490000     0.369699950000     0.751231670000     0.0497288  
C7       C      0.338089240000     0.392944520000     0.722614010000    -0.102061   
H7       H      0.319505740000     0.411503190000     0.722302170000     0.0406112  
C8       C      0.362017920000     0.388383180000     0.694164260000    -0.0219216  
H8       H      0.359701640000     0.404299070000     0.674302210000     0.0308114  
C9       C      0.325757650000     0.438361130000     0.771861340000     0.00398767 
H9       H      0.343910300000     0.423300340000     0.762290140000     0.0184817  
C11      C      0.231421560000     0.374610210000     0.855099640000     0.00395032 
H11      H      0.221703650000     0.378303270000     0.841306550000     0.0107714  
C12      C      0.263336870000     0.370486240000     0.873306520000     0.16301    
C13      C      0.219654890000     0.363589220000     0.887891220000    -0.000292576
H13      H      0.200295670000     0.358708730000     0.900700800000     0.0137349  
C15      C      0.261477660000     0.289273730000     0.992238940000     0.0555808  
C16      C      0.236915930000     0.291892700000     0.020461750000    -0.107215   
H16      H      0.218501620000     0.310693290000     0.020509730000     0.0428616  
C17      C      0.239433570000     0.266559460000     0.049103400000    -0.0225038  
H17      H      0.222402350000     0.267996960000     0.068605630000     0.0311895  
C20      C      0.165333960000     0.370772870000     0.971369400000     0.0798455  
H20      H      0.164906750000     0.390707050000     0.968898640000    -0.0415472  
C21      C      0.182664050000     0.322662960000     0.971657250000     0.0417544  
C26      C      0.149354520000     0.334061780000     0.980340900000     0.045917   
C28      C      0.107886770000     0.439614740000     0.911735270000     0.0488715  
C29      C      0.139336360000     0.436013500000     0.900149080000    -0.102733   
H29      H      0.152604590000     0.422594620000     0.913198540000     0.0488139  
C30      C      0.150795180000     0.452920580000     0.868628870000    -0.0204962  
H30      H      0.172697940000     0.451511690000     0.859489440000     0.060402   
C32      C      0.108839290000     0.420962910000     0.022428760000     0.0232842  
C36      C      0.042937360000     0.374035780000     0.015640170000     0.0210831  
Zn1      Zn+2   0.399541470000     0.282802390000     0.518260380000     1.18834    
Zn2      Zn+2   0.350595420000     0.235362210000     0.469180970000     1.19019    
Zn3      Zn+2   0.400453900000     0.097466060000     0.518524250000     1.17696    
O1       O      0.452729340000     0.231837780000     0.495087990000    -0.175776   
O2       O      0.381649930000     0.309910680000     0.461360880000    -0.152384   
O3       O      0.365299330000     0.292151420000     0.443465850000    -0.160387   
N1       N      0.410340930000     0.256226670000     0.558296320000    -0.291365   
N2       N      0.368139020000     0.324103600000     0.524761120000    -0.291758   
N3       N      0.436830110000     0.294834800000     0.480263410000    -0.280484   
N5       N      0.379347600000     0.259183240000     0.515909560000    -0.276216   
N6       N      0.372522470000     0.289949770000     0.464047540000    -0.0335081  
N7       N      0.360679330000     0.240901960000     0.498902080000    -0.281796   
N8       N      0.309536220000     0.265515500000     0.463327900000    -0.301839   
N9       N      0.381457210000     0.235024170000     0.425618790000    -0.284812   
N11      N      0.346116830000     0.192818640000     0.494632220000    -0.292387   
N12      N      0.364928070000     0.138753710000     0.516245390000    -0.299339   
N13      N      0.426065940000     0.088783590000     0.542536220000    -0.305558   
N14      N      0.428424820000     0.102304160000     0.473138980000    -0.299411   
N15      N      0.387326580000     0.060062180000     0.536155420000    -0.305313   
C2       C      0.390721580000     0.252850620000     0.589864510000     0.0547636  
C3       C      0.358579690000     0.264899310000     0.602026420000    -0.106924   
H3       H      0.345606810000     0.277993790000     0.588593150000     0.0407735  
C4       C      0.345944570000     0.257326940000     0.634242280000    -0.0206474  
H4       H      0.323392940000     0.265403230000     0.644005390000     0.0303483  
C6       C      0.369709550000     0.342184150000     0.536875060000     0.0497288  
C7       C      0.392938490000     0.338075860000     0.546350310000    -0.102061   
H7       H      0.411486420000     0.319501190000     0.546710130000     0.0406112  
C8       C      0.388365040000     0.362026370000     0.555441750000    -0.0219216  
H8       H      0.404304170000     0.359690640000     0.561702620000     0.0308114  
C9       C      0.438360430000     0.325759030000     0.464023550000     0.00398767 
H9       H      0.423304840000     0.343909360000     0.470500310000     0.0184817  
C11      C      0.374610660000     0.231402760000     0.538866060000     0.00395032 
H11      H      0.378302160000     0.221691670000     0.558704120000     0.0107714  
C12      C      0.370474800000     0.263331290000     0.492881090000     0.16301    
C13      C      0.363590190000     0.219652160000     0.528863070000    -0.000292576
H13      H      0.358691800000     0.200300810000     0.540305340000     0.0137349  
C15      C      0.289280600000     0.261474860000     0.456995070000     0.0555808  
C16      C      0.291890430000     0.236897450000     0.450734210000    -0.107215   
H16      H      0.310708280000     0.218496190000     0.450302420000     0.0428616  
C17      C      0.266569370000     0.239428500000     0.444905130000    -0.0225038  
H17      H      0.268003040000     0.222412810000     0.440995090000     0.0311895  
C20      C      0.370762110000     0.165342640000     0.492521270000     0.0798455  
H20      H      0.390695690000     0.164913450000     0.475489810000    -0.0415472  
C21      C      0.322671090000     0.182658280000     0.523010000000     0.0417544  
C26      C      0.334060420000     0.149341130000     0.536251370000     0.045917   
C28      C      0.439618310000     0.107875250000     0.540761110000     0.0488715  
C29      C      0.436008300000     0.139350270000     0.524497260000    -0.102733   
H29      H      0.422591950000     0.152608090000     0.511591720000     0.0488139  
C30      C      0.452907900000     0.150801500000     0.527663670000    -0.0204962  
H30      H      0.451498730000     0.172707080000     0.516293370000     0.060402   
C32      C      0.420962540000     0.108841560000     0.447759700000     0.0232842  
C36      C      0.374045900000     0.042934420000     0.567387770000     0.0210831  
Zn1      Zn+2   0.799391390000     0.518269340000     0.282794340000     1.18834    
Zn2      Zn+2   0.944848090000     0.469191860000     0.235370090000     1.19019    
Zn3      Zn+2   0.983550120000     0.518530630000     0.097463180000     1.17696    
O1       O      0.820346590000     0.495094650000     0.231819870000    -0.175776   
O2       O      0.847082180000     0.461355610000     0.309900760000    -0.152384   
O3       O      0.899092620000     0.443480520000     0.292149650000    -0.160387   
N1       N      0.775130900000     0.558285870000     0.256239640000    -0.291365   
N2       N      0.782991750000     0.524764250000     0.324101640000    -0.291758   
N3       N      0.788086610000     0.480263370000     0.294836300000    -0.280484   
N5       N      0.845549540000     0.515914920000     0.259190160000    -0.276216   
N6       N      0.873470360000     0.464042460000     0.289966740000    -0.0335081  
N7       N      0.899519950000     0.498902230000     0.240887330000    -0.281796   
N8       N      0.961641810000     0.463332870000     0.265499000000    -0.301839   
N9       N      0.957915080000     0.425609530000     0.235034260000    -0.284812   
N11      N      0.966437650000     0.494616950000     0.192815410000    -0.292387   
N12      N      0.980065970000     0.516258500000     0.138746500000    -0.299339   
N13      N      0.942606170000     0.542548610000     0.088779530000    -0.305558   
N14      N      0.996126650000     0.473161310000     0.102284760000    -0.299411   
N15      N      0.016463070000     0.536152860000     0.060065910000    -0.305313   
C2       C      0.766569270000     0.589877180000     0.252857330000     0.0547636  
C3       C      0.774498340000     0.602011080000     0.264899300000    -0.106924   
H3       H      0.787798020000     0.588598830000     0.277996740000     0.0407735  
C4       C      0.762510570000     0.634232730000     0.257319100000    -0.0206474  
H4       H      0.767197540000     0.643999550000     0.265403050000     0.0303483  
C6       C      0.751245530000     0.536873370000     0.342188580000     0.0497288  
C7       C      0.722621260000     0.546359860000     0.338086640000    -0.102061   
H7       H      0.722306430000     0.546699190000     0.319495950000     0.0406112  
C8       C      0.694167460000     0.555432390000     0.362026640000    -0.0219216  
H8       H      0.674293520000     0.561703710000     0.359699810000     0.0308114  
C9       C      0.771850390000     0.464031120000     0.325756810000     0.00398767 
H9       H      0.762313710000     0.470492840000     0.343891730000     0.0184817  
C11      C      0.855105160000     0.538879640000     0.231412080000     0.00395032 
H11      H      0.841299750000     0.558695610000     0.221696940000     0.0107714  
C12      C      0.873301040000     0.492888020000     0.263340080000     0.16301    
C13      C      0.887905810000     0.528866160000     0.219657960000    -0.000292576
H13      H      0.900704140000     0.540294470000     0.200299660000     0.0137349  
C15      C      0.992241330000     0.457009340000     0.261469020000     0.0555808  
C16      C      0.020467860000     0.450722950000     0.236905320000    -0.107215   
H16      H      0.020498370000     0.450297210000     0.218506540000     0.0428616  
C17      C      0.049097710000     0.444899830000     0.239448050000    -0.0225038  
H17      H      0.068606660000     0.440995760000     0.222392590000     0.0311895  
C20      C      0.971372660000     0.492509560000     0.165349170000     0.0798455  
H20      H      0.968904130000     0.475495870000     0.164893400000    -0.0415472  
C21      C      0.971650290000     0.523012650000     0.182668490000     0.0417544  
C26      C      0.980361910000     0.536245000000     0.149349180000     0.045917   
C28      C      0.911746480000     0.540752250000     0.107873960000     0.0488715  
C29      C      0.900143730000     0.524494400000     0.139346200000    -0.102733   
H29      H      0.913202660000     0.511591580000     0.152611550000     0.0488139  
C30      C      0.868627020000     0.527668680000     0.150788460000    -0.0204962  
H30      H      0.859503670000     0.516297440000     0.172689490000     0.060402   
C32      C      0.022452080000     0.447751680000     0.108833480000     0.0232842  
C36      C      0.015645120000     0.567372940000     0.042938490000     0.0210831  
Zn1      Zn+2   0.518271450000     0.799393090000     0.399543850000     1.18834    
Zn2      Zn+2   0.469199730000     0.944850770000     0.350584380000     1.19019    
Zn3      Zn+2   0.518538170000     0.983546050000     0.400455390000     1.17696    
O1       O      0.495082820000     0.820362090000     0.452725210000    -0.175776   
O2       O      0.461360920000     0.847084780000     0.381648820000    -0.152384   
O3       O      0.443483480000     0.899081960000     0.365289010000    -0.160387   
N1       N      0.558305190000     0.775123790000     0.410338440000    -0.291365   
N2       N      0.524768110000     0.782999930000     0.368119590000    -0.291758   
N3       N      0.480260540000     0.788075500000     0.436821180000    -0.280484   
N5       N      0.515909830000     0.845545560000     0.379345970000    -0.276216   
N6       N      0.464046960000     0.873493670000     0.372509390000    -0.0335081  
N7       N      0.498905770000     0.899509000000     0.360683320000    -0.281796   
N8       N      0.463332040000     0.961630320000     0.309540940000    -0.301839   
N9       N      0.425615920000     0.957899730000     0.381456910000    -0.284812   
N11      N      0.494635610000     0.966443730000     0.346122610000    -0.292387   
N12      N      0.516256030000     0.980077030000     0.364929190000    -0.299339   
N13      N      0.542534370000     0.942628090000     0.426050570000    -0.305558   
N14      N      0.473147960000     0.996137710000     0.428425380000    -0.299411   
N15      N      0.536161760000     0.016453810000     0.387309980000    -0.305313   
C2       C      0.589870490000     0.766556960000     0.390716270000     0.0547636  
C3       C      0.602023460000     0.774512430000     0.358572380000    -0.106924   
H3       H      0.588611520000     0.787794240000     0.345594880000     0.0407735  
C4       C      0.634244700000     0.762510590000     0.345930710000    -0.0206474  
H4       H      0.644008650000     0.767191820000     0.323405990000     0.0303483  
C6       C      0.536879700000     0.751239380000     0.369702800000     0.0497288  
C7       C      0.546365280000     0.722616610000     0.392947160000    -0.102061   
H7       H      0.546715680000     0.722293270000     0.411489870000     0.0406112  
C8       C      0.555432950000     0.694177530000     0.388365450000    -0.0219216  
H8       H      0.561695350000     0.674303430000     0.404293470000     0.0308114  
C9       C      0.464037800000     0.771837580000     0.438380400000     0.00398767 
H9       H      0.470493420000     0.762302300000     0.423291950000     0.0184817  
C11      C      0.538876890000     0.855104250000     0.374620340000     0.00395032 
H11      H      0.558708700000     0.841306310000     0.378290500000     0.0107714  
C12      C      0.492870660000     0.873313920000     0.370470420000     0.16301    
C13      C      0.528863390000     0.887889310000     0.363585860000    -0.000292576
H13      H      0.540303070000     0.900692840000     0.358692320000     0.0137349  
C15      C      0.457003090000     0.992246910000     0.289271090000     0.0555808  
C16      C      0.450738430000     0.020466710000     0.291885780000    -0.107215   
H16      H      0.450304650000     0.020507740000     0.310692360000     0.0428616  
C17      C      0.444892690000     0.049106640000     0.266554470000    -0.0225038  
H17      H      0.441008860000     0.068596890000     0.267993750000     0.0311895  
C20      C      0.492525960000     0.971371790000     0.370758270000     0.0798455  
H20      H      0.475504380000     0.968911100000     0.390692290000    -0.0415472  
C21      C      0.523009260000     0.971662960000     0.322662360000     0.0417544  
C26      C      0.536237420000     0.980348950000     0.334056660000     0.045917   
C28      C      0.540754430000     0.911732000000     0.439627770000     0.0488715  
C29      C      0.524498300000     0.900130690000     0.436029570000    -0.102733   
H29      H      0.511595480000     0.913202560000     0.422596300000     0.0488139  
C30      C      0.527653270000     0.868628710000     0.452917110000    -0.0204962  
H30      H      0.516302350000     0.859488630000     0.451501820000     0.060402   
C32      C      0.447747420000     0.022446280000     0.420965120000     0.0232842  
C36      C      0.567376270000     0.015628670000     0.374044620000     0.0210831  
Zn1      Zn+2   0.799387600000     0.282796420000     0.399543850000     1.18834    
Zn2      Zn+2   0.944849410000     0.235361490000     0.350584380000     1.19019    
Zn3      Zn+2   0.983551630000     0.097470360000     0.400455390000     1.17696    
O1       O      0.820356850000     0.231823650000     0.452725210000    -0.175776   
O2       O      0.847074500000     0.309907470000     0.381648820000    -0.152384   
O3       O      0.899091020000     0.292156630000     0.365289010000    -0.160387   
N1       N      0.775126270000     0.256242890000     0.410338440000    -0.291365   
N2       N      0.782999900000     0.324119510000     0.368119590000    -0.291758   
N3       N      0.788084250000     0.294841250000     0.436821180000    -0.280484   
N5       N      0.845551500000     0.259200870000     0.379345970000    -0.276216   
N6       N      0.873490430000     0.289953380000     0.372509390000    -0.0335081  
N7       N      0.899512050000     0.240883300000     0.360683320000    -0.281796   
N8       N      0.961619070000     0.265507150000     0.309540940000    -0.301839   
N9       N      0.957904530000     0.235021720000     0.381456910000    -0.284812   
N11      N      0.966433980000     0.192815220000     0.346122610000    -0.292387   
N12      N      0.980063450000     0.138758570000     0.364929190000    -0.299339   
N13      N      0.942625290000     0.088780320000     0.426050570000    -0.305558   
N14      N      0.996128620000     0.102282080000     0.428425380000    -0.299411   
N15      N      0.016461450000     0.060057630000     0.387309980000    -0.305313   
C2       C      0.766555460000     0.252855150000     0.390716270000     0.0547636  
C3       C      0.774507210000     0.264904130000     0.358572380000    -0.106924   
H3       H      0.787803240000     0.278005010000     0.345594880000     0.0407735  
C4       C      0.762511180000     0.257312420000     0.345930710000    -0.0206474  
H4       H      0.767198800000     0.265408680000     0.323405990000     0.0303483  
C6       C      0.751240510000     0.342182200000     0.369702800000     0.0497288  
C7       C      0.722614510000     0.338075270000     0.392947160000    -0.102061   
H7       H      0.722297450000     0.319500750000     0.411489870000     0.0406112  
C8       C      0.694160680000     0.362037670000     0.388365450000    -0.0219216  
H8       H      0.674306050000     0.359691030000     0.404293470000     0.0308114  
C9       C      0.771857630000     0.325735250000     0.438380400000     0.00398767 
H9       H      0.762306420000     0.343904680000     0.423291950000     0.0184817  
C11      C      0.855117410000     0.231397780000     0.374620340000     0.00395032 
H11      H      0.841310080000     0.221693360000     0.378290500000     0.0107714  
C12      C      0.873305590000     0.263335420000     0.370470420000     0.16301    
C13      C      0.887895680000     0.219651770000     0.363585860000    -0.000292576
H13      H      0.900706240000     0.200295220000     0.358692320000     0.0137349  
C15      C      0.992239320000     0.261475890000     0.289271090000     0.0555808  
C16      C      0.020466110000     0.236902670000     0.291885780000    -0.107215   
H16      H      0.020493390000     0.218511580000     0.310692360000     0.0428616  
C17      C      0.049097050000     0.239443640000     0.266554470000    -0.0225038  
H17      H      0.068607270000     0.222408900000     0.267993750000     0.0311895  
C20      C      0.971382050000     0.165334430000     0.370758270000     0.0798455  
H20      H      0.968894110000     0.164909180000     0.390692290000    -0.0415472  
C21      C      0.971668570000     0.182655510000     0.322662360000     0.0417544  
C26      C      0.980355480000     0.149343420000     0.334056660000     0.045917   
C28      C      0.911730180000     0.107888400000     0.439627770000     0.0488715  
C29      C      0.900141470000     0.139325500000     0.436029570000    -0.102733   
H29      H      0.913205990000     0.152600920000     0.422596300000     0.0488139  
C30      C      0.868629700000     0.150794090000     0.452917110000    -0.0204962  
H30      H      0.859497850000     0.172705900000     0.451501820000     0.060402   
C32      C      0.022445340000     0.108839730000     0.420965120000     0.0232842  
C36      C      0.015627050000     0.042948900000     0.374044620000     0.0210831  
Zn1      Zn+2   0.518262430000     0.399557490000     0.282794340000     1.18834    
Zn2      Zn+2   0.469192150000     0.350593100000     0.235370090000     1.19019    
Zn3      Zn+2   0.518523970000     0.400452040000     0.097463180000     1.17696    
O1       O      0.495087510000     0.452734720000     0.231819870000    -0.175776   
O2       O      0.461364810000     0.381656510000     0.309900760000    -0.152384   
O3       O      0.443459070000     0.365296700000     0.292149650000    -0.160387   
N1       N      0.558282310000     0.410354040000     0.256239640000    -0.291365   
N2       N      0.524782790000     0.368125230000     0.324101640000    -0.291758   
N3       N      0.480253540000     0.436817860000     0.294836300000    -0.280484   
N5       N      0.515896590000     0.379358990000     0.259190160000    -0.276216   
N6       N      0.464033310000     0.372515160000     0.289966740000    -0.0335081  
N7       N      0.498909400000     0.360695320000     0.240887330000    -0.281796   
N8       N      0.463331740000     0.309543480000     0.265499000000    -0.301839   
N9       N      0.425614950000     0.381440310000     0.235034260000    -0.284812   
N11      N      0.494625620000     0.346119720000     0.192815410000    -0.292387   
N12      N      0.516248370000     0.364934260000     0.138746500000    -0.299339   
N13      N      0.542539010000     0.426053140000     0.088779530000    -0.305558   
N14      N      0.473158000000     0.428426690000     0.102284760000    -0.299411   
N15      N      0.536151850000     0.387316380000     0.060065910000    -0.305313   
C2       C      0.589877590000     0.390697290000     0.252857330000     0.0547636  
C3       C      0.602015220000     0.358571510000     0.264899300000    -0.106924   
H3       H      0.588588740000     0.345611580000     0.277996740000     0.0407735  
C4       C      0.634231060000     0.345945460000     0.257319100000    -0.0206474  
H4       H      0.644011060000     0.323393890000     0.265403050000     0.0303483  
C6       C      0.536871160000     0.369695250000     0.342188580000     0.0497288  
C7       C      0.546360870000     0.392932320000     0.338086640000    -0.102061   
H7       H      0.546705230000     0.411500220000     0.319495950000     0.0406112  
C8       C      0.555436850000     0.388367350000     0.362026640000    -0.0219216  
H8       H      0.561700000000     0.404295740000     0.359699810000     0.0308114  
C9       C      0.464021290000     0.438361860000     0.325756810000     0.00398767 
H9       H      0.470498940000     0.423293070000     0.343891730000     0.0184817  
C11      C      0.538873660000     0.374618990000     0.231412080000     0.00395032 
H11      H      0.558690760000     0.378309690000     0.221696940000     0.0107714  
C12      C      0.492872650000     0.370489760000     0.263340080000     0.16301    
C13      C      0.528858700000     0.363587790000     0.219657960000    -0.000292576
H13      H      0.540291290000     0.358709900000     0.200299660000     0.0137349  
C15      C      0.457004550000     0.289288440000     0.261469020000     0.0555808  
C16      C      0.450730170000     0.291890160000     0.236905320000    -0.107215   
H16      H      0.450295560000     0.310688100000     0.218506540000     0.0428616  
C17      C      0.444893440000     0.266549370000     0.239448050000    -0.0225038  
H17      H      0.441000290000     0.268005310000     0.222392590000     0.0311895  
C20      C      0.492509520000     0.370767160000     0.165349170000     0.0798455  
H20      H      0.475500460000     0.390708160000     0.164893400000    -0.0415472  
C21      C      0.523025550000     0.322656730000     0.182668490000     0.0417544  
C26      C      0.536237380000     0.334057180000     0.149349180000     0.045917   
C28      C      0.540764290000     0.439613100000     0.107873960000     0.0488715  
C29      C      0.524493840000     0.436020270000     0.139346200000    -0.102733   
H29      H      0.511587070000     0.422597280000     0.152611550000     0.0488139  
C30      C      0.527655290000     0.452922510000     0.150788460000    -0.0204962  
H30      H      0.516298450000     0.451502350000     0.172689490000     0.060402   
C32      C      0.447767520000     0.420951620000     0.108833480000     0.0232842  
C36      C      0.567369870000     0.374050630000     0.042938490000     0.0210831  
Zn1      Zn+2   0.282791930000     0.799399070000     0.518260380000     1.18834    
Zn2      Zn+2   0.235369280000     0.944851500000     0.469180970000     1.19019    
Zn3      Zn+2   0.097476300000     0.983541760000     0.518524250000     1.17696    
O1       O      0.231821400000     0.820353610000     0.495087990000    -0.175776   
O2       O      0.309901650000     0.847088000000     0.461360880000    -0.152384   
O3       O      0.292138380000     0.899099360000     0.443465850000    -0.160387   
N1       N      0.256223250000     0.775130180000     0.558296320000    -0.291365   
N2       N      0.324120480000     0.782984020000     0.524761120000    -0.291758   
N3       N      0.294841970000     0.788069050000     0.480263410000    -0.280484   
N5       N      0.259187610000     0.845550540000     0.515909560000    -0.276216   
N6       N      0.289962830000     0.873467450000     0.464047540000    -0.0335081  
N7       N      0.240890370000     0.899505050000     0.498902080000    -0.281796   
N8       N      0.265509760000     0.961638670000     0.463327900000    -0.301839   
N9       N      0.235034490000     0.957902180000     0.425618790000    -0.284812   
N11      N      0.192819440000     0.966424530000     0.494632220000    -0.292387   
N12      N      0.138758880000     0.980072170000     0.516245390000    -0.299339   
N13      N      0.088768080000     0.942631360000     0.542536220000    -0.305558   
N14      N      0.102295830000     0.996137180000     0.473138980000    -0.299411   
N15      N      0.060064900000     0.016458360000     0.536155420000    -0.305313   
C2       C      0.252844960000     0.766575050000     0.589864510000     0.0547636  
C3       C      0.264890850000     0.774507610000     0.602026420000    -0.106924   
H3       H      0.278002820000     0.787805640000     0.588593150000     0.0407735  
C4       C      0.257312090000     0.762502490000     0.634242280000    -0.0206474  
H4       H      0.265393630000     0.767208980000     0.644005390000     0.0303483  
C6       C      0.342180610000     0.751241330000     0.536875060000     0.0497288  
C7       C      0.338083950000     0.722617200000     0.546350310000    -0.102061   
H7       H      0.319498150000     0.722293710000     0.546710130000     0.0406112  
C8       C      0.362022390000     0.694166230000     0.555441750000    -0.0219216  
H8       H      0.359696430000     0.674303040000     0.561702620000     0.0308114  
C9       C      0.325755320000     0.771861360000     0.464023550000     0.00398767 
H9       H      0.343903150000     0.762306980000     0.470500310000     0.0184817  
C11      C      0.231413390000     0.855109220000     0.538866060000     0.00395032 
H11      H      0.221698210000     0.841304620000     0.558704120000     0.0107714  
C12      C      0.263324810000     0.873309790000     0.492881090000     0.16301    
C13      C      0.219672100000     0.887889700000     0.528863070000    -0.000292576
H13      H      0.200299740000     0.900698430000     0.540305340000     0.0137349  
C15      C      0.261481220000     0.992245890000     0.456995070000     0.0555808  
C16      C      0.236916970000     0.020461490000     0.450734210000    -0.107215   
H16      H      0.218510630000     0.020492340000     0.450302420000     0.0428616  
C17      C      0.239442220000     0.049091500000     0.444905130000    -0.0225038  
H17      H      0.222397950000     0.068600800000     0.440995090000     0.0311895  
C20      C      0.165347660000     0.971380000000     0.492521270000     0.0798455  
H20      H      0.164902650000     0.968892750000     0.475489810000    -0.0415472  
C21      C      0.182669230000     0.971665720000     0.523010000000     0.0417544  
C26      C      0.149360330000     0.980346650000     0.536251370000     0.045917   
C28      C      0.107881810000     0.911741470000     0.540761110000     0.0488715  
C29      C      0.139347620000     0.900132840000     0.524497260000    -0.102733   
H29      H      0.152600080000     0.913209730000     0.511591720000     0.0488139  
C30      C      0.150801610000     0.868613500000     0.527663670000    -0.0204962  
H30      H      0.172691030000     0.859512430000     0.516293370000     0.060402   
C32      C      0.108828130000     0.022448100000     0.447759700000     0.0232842  
C36      C      0.042940070000     0.015636800000     0.567387770000     0.0210831  
Zn1      Zn+2   0.399541410000     0.518266490000     0.799399550000     1.18834    
Zn2      Zn+2   0.350591850000     0.469198760000     0.944838690000     1.19019    
Zn3      Zn+2   0.400442790000     0.518532700000     0.983555290000     1.17696    
O1       O      0.452736930000     0.495092870000     0.820341060000    -0.175776   
O2       O      0.381662010000     0.461367490000     0.847087660000    -0.152384   
O3       O      0.365294910000     0.443466770000     0.899093600000    -0.160387   
N1       N      0.410351550000     0.558292350000     0.775123710000    -0.291365   
N2       N      0.368119100000     0.524776090000     0.782991760000    -0.291758   
N3       N      0.436814930000     0.480268690000     0.788077220000    -0.280484   
N5       N      0.379347680000     0.515909070000     0.845552430000    -0.276216   
N6       N      0.372519420000     0.464038250000     0.873474440000    -0.0335081  
N7       N      0.360690860000     0.498921180000     0.899501400000    -0.281796   
N8       N      0.309522810000     0.463330170000     0.961630280000    -0.301839   
N9       N      0.381444030000     0.425602030000     0.957912140000    -0.284812   
N11      N      0.346135230000     0.494637380000     0.966427870000    -0.292387   
N12      N      0.364932260000     0.516254470000     0.980077040000    -0.299339   
N13      N      0.426062300000     0.542532030000     0.942631790000    -0.305558   
N14      N      0.428420220000     0.473158900000     0.996125000000    -0.299411   
N15      N      0.387323140000     0.536170050000     0.016455760000    -0.305313   
C2       C      0.390716670000     0.589869360000     0.766560000000     0.0547636  
C3       C      0.358581400000     0.602013600000     0.774500020000    -0.106924   
H3       H      0.345596570000     0.588605240000     0.787789360000     0.0407735  
C4       C      0.345940350000     0.634236480000     0.762506030000    -0.0206474  
H4       H      0.323391470000     0.643999920000     0.767207670000     0.0303483  
C6       C      0.369702410000     0.536878070000     0.751231670000     0.0497288  
C7       C      0.392935350000     0.546372060000     0.722614010000    -0.102061   
H7       H      0.411493850000     0.546702170000     0.722302170000     0.0406112  
C8       C      0.388374770000     0.555425600000     0.694164260000    -0.0219216  
H8       H      0.404292200000     0.561707040000     0.674302210000     0.0308114  
C9       C      0.438372030000     0.464030380000     0.771861340000     0.00398767 
H9       H      0.423313740000     0.470500120000     0.762290140000     0.0184817  
C11      C      0.374609800000     0.538870860000     0.855099640000     0.00395032 
H11      H      0.378295640000     0.558689180000     0.841306550000     0.0107714  
C12      C      0.370480320000     0.492884500000     0.873306520000     0.16301    
C13      C      0.363587790000     0.528867590000     0.887891220000    -0.000292576
H13      H      0.358697410000     0.540293300000     0.900700800000     0.0137349  
C15      C      0.289277600000     0.456994630000     0.992238940000     0.0555808  
C16      C      0.291899400000     0.450725490000     0.020461750000    -0.107215   
H16      H      0.310693750000     0.450302400000     0.020509730000     0.0428616  
C17      C      0.266560630000     0.444909920000     0.049103400000    -0.0225038  
H17      H      0.267995830000     0.440987410000     0.068605630000     0.0311895  
C20      C      0.370775040000     0.492515270000     0.971369400000     0.0798455  
H20      H      0.390705450000     0.475494760000     0.968898640000    -0.0415472  
C21      C      0.322670510000     0.523018880000     0.971657250000     0.0417544  
C26      C      0.334061070000     0.536249600000     0.980340900000     0.045917   
C28      C      0.439618410000     0.540753880000     0.911735270000     0.0488715  
C29      C      0.436015070000     0.524487630000     0.900149080000    -0.102733   
H29      H      0.422590240000     0.511611540000     0.913198540000     0.0488139  
C30      C      0.452908080000     0.527666750000     0.868628870000    -0.0204962  
H30      H      0.451504040000     0.516306780000     0.859489440000     0.060402   
C32      C      0.420960350000     0.447762970000     0.022428760000     0.0232842  
C36      C      0.374045040000     0.567380720000     0.015640170000     0.0210831  
Zn1      Zn+2   0.399551520000     0.799387310000     0.282794340000     1.18834    
Zn2      Zn+2   0.350589350000     0.944853420000     0.235370090000     1.19019    
Zn3      Zn+2   0.400442820000     0.983562630000     0.097463180000     1.17696    
O1       O      0.452726120000     0.820359230000     0.231819870000    -0.175776   
O2       O      0.381663240000     0.847072980000     0.309900760000    -0.152384   
O3       O      0.365298340000     0.899081600000     0.292149650000    -0.160387   
N1       N      0.410346830000     0.775128920000     0.256239640000    -0.291365   
N2       N      0.368134800000     0.782994740000     0.324101640000    -0.291758   
N3       N      0.436823220000     0.788090940000     0.294836300000    -0.280484   
N5       N      0.379343800000     0.845544400000     0.259190160000    -0.276216   
N6       N      0.372509680000     0.873484110000     0.289966740000    -0.0335081  
N7       N      0.360694310000     0.899500990000     0.240887330000    -0.281796   
N8       N      0.309527130000     0.961633130000     0.265499000000    -0.301839   
N9       N      0.381446690000     0.957901760000     0.235034260000    -0.284812   
N11      N      0.346132310000     0.966433770000     0.192815410000    -0.292387   
N12      N      0.364938850000     0.980069220000     0.138746500000    -0.299339   
N13      N      0.426055390000     0.942627200000     0.088779530000    -0.305558   
N14      N      0.428430260000     0.996135720000     0.102284760000    -0.299411   
N15      N      0.387324660000     0.016457780000     0.060065910000    -0.305313   
C2       C      0.390695480000     0.766576670000     0.252857330000     0.0547636  
C3       C      0.358578550000     0.774503980000     0.264899300000    -0.106924   
H3       H      0.345596600000     0.787801330000     0.277996740000     0.0407735  
C4       C      0.345938950000     0.762511180000     0.257319100000    -0.0206474  
H4       H      0.323399340000     0.767189380000     0.265403050000     0.0303483  
C6       C      0.369705720000     0.751228650000     0.342188580000     0.0497288  
C7       C      0.392942220000     0.722607030000     0.338086640000    -0.102061   
H7       H      0.411503370000     0.722290500000     0.319495950000     0.0406112  
C8       C      0.388368720000     0.694182090000     0.362026640000    -0.0219216  
H8       H      0.404286760000     0.674309210000     0.359699810000     0.0308114  
C9       C      0.438371180000     0.771858690000     0.325756810000     0.00398767 
H9       H      0.423306600000     0.762308220000     0.343891730000     0.0184817  
C11      C      0.374597470000     0.855120390000     0.231412080000     0.00395032 
H11      H      0.378292640000     0.841306240000     0.221696940000     0.0107714  
C12      C      0.370485900000     0.873290620000     0.263340080000     0.16301    
C13      C      0.363577210000     0.887896550000     0.219657960000    -0.000292576
H13      H      0.358704590000     0.900704440000     0.200299660000     0.0137349  
C15      C      0.289284780000     0.992241670000     0.261469020000     0.0555808  
C16      C      0.291882550000     0.020474500000     0.236905320000    -0.107215   
H16      H      0.310705020000     0.020501080000     0.218506540000     0.0428616  
C17      C      0.266566300000     0.049095680000     0.239448050000    -0.0225038  
H17      H      0.268005950000     0.068599260000     0.222392590000     0.0311895  
C20      C      0.370748750000     0.971382590000     0.165349170000     0.0798455  
H20      H      0.390701690000     0.968911050000     0.164893400000    -0.0415472  
C21      C      0.322666660000     0.971647980000     0.182668490000     0.0417544  
C26      C      0.334051200000     0.980357110000     0.149349180000     0.045917   
C28      C      0.439626250000     0.911746550000     0.107873960000     0.0488715  
C29      C      0.436015910000     0.900147610000     0.139346200000    -0.102733   
H29      H      0.422609700000     0.913185450000     0.152611550000     0.0488139  
C30      C      0.452928900000     0.868628820000     0.150788460000    -0.0204962  
H30      H      0.451499800000     0.859496570000     0.172689490000     0.060402   
C32      C      0.420963720000     0.022433540000     0.108833480000     0.0232842  
C36      C      0.374052010000     0.015630870000     0.042938490000     0.0210831  
Zn1      Zn+2   0.282796780000     0.518275120000     0.399543850000     1.18834    
Zn2      Zn+2   0.235377480000     0.469189220000     0.350584380000     1.19019    
Zn3      Zn+2   0.097454490000     0.518536670000     0.400455390000     1.17696    
O1       O      0.231834810000     0.495097520000     0.452725210000    -0.175776   
O2       O      0.309895860000     0.461367410000     0.381648820000    -0.152384   
O3       O      0.292136170000     0.443480870000     0.365289010000    -0.160387   
N1       N      0.256229780000     0.558303360000     0.410338440000    -0.291365   
N2       N      0.324112080000     0.524769440000     0.368119590000    -0.291758   
N3       N      0.294833720000     0.480270550000     0.436821180000    -0.280484   
N5       N      0.259192380000     0.515916080000     0.379345970000    -0.276216   
N6       N      0.289952900000     0.464052020000     0.372509390000    -0.0335081  
N7       N      0.240890260000     0.498910240000     0.360683320000    -0.281796   
N8       N      0.265507640000     0.463330070000     0.309540940000    -0.301839   
N9       N      0.235033620000     0.425607490000     0.381456910000    -0.284812   
N11      N      0.192807470000     0.494626910000     0.346122610000    -0.292387   
N12      N      0.138751000000     0.516243690000     0.364929190000    -0.299339   
N13      N      0.088789440000     0.542549500000     0.426050570000    -0.305558   
N14      N      0.102289440000     0.473140680000     0.428425380000    -0.299411   
N15      N      0.060052720000     0.536171510000     0.387309980000    -0.305313   
C2       C      0.252849180000     0.589857470000     0.390716270000     0.0547636  
C3       C      0.264896640000     0.602019530000     0.358572380000    -0.106924   
H3       H      0.278001350000     0.588591740000     0.345594880000     0.0407735  
C4       C      0.257324400000     0.634232140000     0.345930710000    -0.0206474  
H4       H      0.265386240000     0.644001990000     0.323405990000     0.0303483  
C6       C      0.342176680000     0.536884100000     0.369702800000     0.0497288  
C7       C      0.338084040000     0.546346820000     0.392947160000    -0.102061   
H7       H      0.319507980000     0.546701970000     0.411489870000     0.0406112  
C8       C      0.362040600000     0.555427830000     0.388365450000    -0.0219216  
H8       H      0.359696530000     0.561697930000     0.404293470000     0.0308114  
C9       C      0.325735160000     0.464032630000     0.438380400000     0.00398767 
H9       H      0.343907890000     0.470509540000     0.423291950000     0.0184817  
C11      C      0.231415930000     0.538863490000     0.374620340000     0.00395032 
H11      H      0.221701710000     0.558695680000     0.378290500000     0.0107714  
C12      C      0.263333420000     0.492888710000     0.370470420000     0.16301    
C13      C      0.219666050000     0.528858920000     0.363585860000    -0.000292576
H13      H      0.200309350000     0.540305480000     0.358692320000     0.0137349  
C15      C      0.261497490000     0.456991970000     0.289271090000     0.0555808  
C16      C      0.236915170000     0.450737770000     0.291885780000    -0.107215   
H16      H      0.218503780000     0.450303870000     0.310692360000     0.0428616  
C17      C      0.239430380000     0.444910790000     0.266554470000    -0.0225038  
H17      H      0.222415190000     0.440993390000     0.267993750000     0.0311895  
C20      C      0.165344700000     0.492521370000     0.370758270000     0.0798455  
H20      H      0.164908900000     0.475495910000     0.390692290000    -0.0415472  
C21      C      0.182659480000     0.523027630000     0.322662360000     0.0417544  
C26      C      0.149361430000     0.536236830000     0.334056660000     0.045917   
C28      C      0.107867720000     0.540760310000     0.439627770000     0.0488715  
C29      C      0.139341640000     0.524500090000     0.436029570000    -0.102733   
H29      H      0.152601910000     0.511608690000     0.422596300000     0.0488139  
C30      C      0.150799590000     0.527668570000     0.452917110000    -0.0204962  
H30      H      0.172708970000     0.516289500000     0.451501820000     0.060402   
C32      C      0.108836310000     0.447764420000     0.420965120000     0.0232842  
C36      C      0.042937960000     0.567370740000     0.374044620000     0.0210831  
Zn1      Zn+2   0.518260070000     0.282787790000     0.799399550000     1.18834    
Zn2      Zn+2   0.469190120000     0.235371030000     0.944838690000     1.19019    
Zn3      Zn+2   0.518529520000     0.097466380000     0.983555290000     1.17696    
O1       O      0.495089080000     0.231841610000     0.820341060000    -0.175776   
O2       O      0.461348370000     0.309907550000     0.847087660000    -0.152384   
O3       O      0.443464050000     0.292142530000     0.899093600000    -0.160387   
N1       N      0.558287170000     0.256231890000     0.775123710000    -0.291365   
N2       N      0.524765430000     0.324103550000     0.782991760000    -0.291758   
N3       N      0.480270520000     0.294839390000     0.788077220000    -0.280484   
N5       N      0.515911860000     0.259193860000     0.845552430000    -0.276216   
N6       N      0.464042650000     0.289962220000     0.873474440000    -0.0335081  
N7       N      0.498909800000     0.240894240000     0.899501400000    -0.281796   
N8       N      0.463334120000     0.265507250000     0.961630280000    -0.301839   
N9       N      0.425605870000     0.235038880000     0.957912140000    -0.284812   
N11      N      0.494643290000     0.192803070000     0.966427870000    -0.292387   
N12      N      0.516257080000     0.138746740000     0.980077040000    -0.299339   
N13      N      0.542528700000     0.088785470000     0.942631790000    -0.305558   
N14      N      0.473142930000     0.102300300000     0.996125000000    -0.299411   
N15      N      0.536165370000     0.060056170000     0.016455760000    -0.305313   
C2       C      0.589881390000     0.252844420000     0.766560000000     0.0547636  
C3       C      0.602016790000     0.264898200000     0.774500020000    -0.106924   
H3       H      0.588607830000     0.277995890000     0.787789360000     0.0407735  
C4       C      0.634230600000     0.257316760000     0.762506030000    -0.0206474  
H4       H      0.643993390000     0.265406620000     0.767207670000     0.0303483  
C6       C      0.536877830000     0.342176170000     0.751231670000     0.0497288  
C7       C      0.546361080000     0.338077890000     0.722614010000    -0.102061   
H7       H      0.546697930000     0.319500950000     0.722302170000     0.0406112  
C8       C      0.555423140000     0.362035440000     0.694164260000    -0.0219216  
H8       H      0.561703630000     0.359700150000     0.674302210000     0.0308114  
C9       C      0.464028250000     0.325755620000     0.771861340000     0.00398767 
H9       H      0.470516390000     0.343895260000     0.762290140000     0.0184817  
C11      C      0.538879980000     0.231405150000     0.855099640000     0.00395032 
H11      H      0.558705150000     0.221686860000     0.841306550000     0.0107714  
C12      C      0.492875960000     0.263331210000     0.873306520000     0.16301    
C13      C      0.528865790000     0.219660440000     0.887891220000    -0.000292576
H13      H      0.540305800000     0.200305650000     0.900700800000     0.0137349  
C15      C      0.456997210000     0.261478560000     0.992238940000     0.0555808  
C16      C      0.450728410000     0.236912990000     0.020461750000    -0.107215   
H16      H      0.450300390000     0.218487510000     0.020509730000     0.0428616  
C17      C      0.444896580000     0.239442770000     0.049103400000    -0.0225038  
H17      H      0.441001680000     0.222402930000     0.068605630000     0.0311895  
C20      C      0.492521280000     0.165350940000     0.971369400000     0.0798455  
H20      H      0.475488840000     0.164908030000     0.968898640000    -0.0415472  
C21      C      0.523007870000     0.182669380000     0.971657250000     0.0417544  
C26      C      0.536243180000     0.149356190000     0.980340900000     0.045917   
C28      C      0.540770540000     0.107881970000     0.911735270000     0.0488715  
C29      C      0.524490900000     0.139335660000     0.900149080000    -0.102733   
H29      H      0.511606310000     0.152603770000     0.913198540000     0.0488139  
C30      C      0.527667560000     0.150792270000     0.868628870000    -0.0204962  
H30      H      0.516308250000     0.172700560000     0.859489440000     0.060402   
C32      C      0.447757500000     0.108838280000     0.022428760000     0.0232842  
C36      C      0.567382930000     0.042936260000     0.015640170000     0.0210831  
Zn1      Zn+2   0.799405900000     0.399546640000     0.518260380000     1.18834    
Zn2      Zn+2   0.944845730000     0.350591180000     0.469180970000     1.19019    
Zn3      Zn+2   0.983556540000     0.400453790000     0.518524250000     1.17696    
O1       O      0.820360950000     0.452729100000     0.495087990000    -0.175776   
O2       O      0.847087210000     0.381648910000     0.461360880000    -0.152384   
O3       O      0.899096120000     0.365291850000     0.443465850000    -0.160387   
N1       N      0.775119590000     0.410355300000     0.558296320000    -0.291365   
N2       N      0.782990360000     0.368137120000     0.524761120000    -0.291758   
N3       N      0.788075500000     0.436818600000     0.480263410000    -0.280484   
N5       N      0.845546640000     0.379342510000     0.515909560000    -0.276216   
N6       N      0.873478150000     0.372521110000     0.464047540000    -0.0335081  
N7       N      0.899508310000     0.360699380000     0.498902080000    -0.281796   
N8       N      0.961625790000     0.309526400000     0.463327900000    -0.301839   
N9       N      0.957900500000     0.381440720000     0.425618790000    -0.284812   
N11      N      0.966431190000     0.346133090000     0.494632220000    -0.292387   
N12      N      0.980067340000     0.364937200000     0.516245390000    -0.299339   
N13      N      0.942629430000     0.426057300000     0.542536220000    -0.305558   
N14      N      0.996140040000     0.428428150000     0.473138980000    -0.299411   
N15      N      0.016458600000     0.387316970000     0.536155420000    -0.305313   
C2       C      0.766568630000     0.390718290000     0.589864510000     0.0547636  
C3       C      0.774502710000     0.358575140000     0.602026420000    -0.106924   
H3       H      0.787808210000     0.345593280000     0.588593150000     0.0407735  
C4       C      0.762500740000     0.345936770000     0.634242280000    -0.0206474  
H4       H      0.767207720000     0.323390880000     0.644005390000     0.0303483  
C6       C      0.751234460000     0.369707930000     0.536875060000     0.0497288  
C7       C      0.722618660000     0.392942490000     0.546350310000    -0.102061   
H7       H      0.722285400000     0.411503440000     0.546710130000     0.0406112  
C8       C      0.694170500000     0.388374110000     0.555441750000    -0.0219216  
H8       H      0.674307760000     0.404289570000     0.561702620000     0.0308114  
C9       C      0.771860370000     0.438364530000     0.464023550000     0.00398767 
H9       H      0.762310970000     0.423291830000     0.470500310000     0.0184817  
C11      C      0.855120880000     0.374607820000     0.538866060000     0.00395032 
H11      H      0.841295180000     0.378308070000     0.558704120000     0.0107714  
C12      C      0.873299400000     0.370486310000     0.492881090000     0.16301    
C13      C      0.887905220000     0.363580940000     0.528863070000    -0.000292576
H13      H      0.900702800000     0.358703890000     0.540305340000     0.0137349  
C15      C      0.992242790000     0.289292650000     0.456995070000     0.0555808  
C16      C      0.020463890000     0.291899780000     0.450734210000    -0.107215   
H16      H      0.020503740000     0.310701980000     0.450302420000     0.0428616  
C17      C      0.049088770000     0.266567800000     0.444905130000    -0.0225038  
H17      H      0.068598100000     0.268006850000     0.440995090000     0.0311895  
C20      C      0.971368640000     0.370764560000     0.492521270000     0.0798455  
H20      H      0.968891940000     0.390712470000     0.475489810000    -0.0415472  
C21      C      0.971649370000     0.322674470000     0.523010000000     0.0417544  
C26      C      0.980358450000     0.334046710000     0.536251370000     0.045917   
C28      C      0.911738450000     0.439630640000     0.540761110000     0.0488715  
C29      C      0.900146510000     0.436028110000     0.524497260000    -0.102733   
H29      H      0.913196350000     0.422598940000     0.511591720000     0.0488139  
C30      C      0.868606910000     0.452929810000     0.527663670000    -0.0204962  
H30      H      0.859496970000     0.451495590000     0.516293370000     0.060402   
C32      C      0.022443820000     0.420966180000     0.447759700000     0.0232842  
C36      C      0.015631750000     0.374033940000     0.567387770000     0.0210831  
Zn1      Zn+2   0.717218170000     0.600455790000     0.481726680000     1.18834    
Zn2      Zn+2   0.764623140000     0.649411240000     0.530806100000     1.19019    
Zn3      Zn+2   0.902539840000     0.599548640000     0.481462810000     1.17696    
O1       O      0.768183300000     0.547273320000     0.504899070000    -0.175776   
O2       O      0.690094270000     0.618345520000     0.538650170000    -0.152384   
O3       O      0.707859070000     0.634710580000     0.556521210000    -0.160387   
N1       N      0.743768470000     0.589639120000     0.441714730000    -0.291365   
N2       N      0.675893860000     0.631865300000     0.475225940000    -0.291758   
N3       N      0.705154770000     0.563175830000     0.519747640000    -0.280484   
N5       N      0.740795970000     0.620651910000     0.484101490000    -0.276216   
N6       N      0.710044060000     0.627473320000     0.535963510000    -0.0335081  
N7       N      0.759115030000     0.639303040000     0.501084980000    -0.281796   
N8       N      0.734485350000     0.690476020000     0.536659160000    -0.301839   
N9       N      0.764957270000     0.618553710000     0.574392260000    -0.284812   
N11      N      0.807193770000     0.653861330000     0.505378830000    -0.292387   
N12      N      0.861255200000     0.635065220000     0.483741670000    -0.299339   
N13      N      0.911228210000     0.573945120000     0.457450840000    -0.305558   
N14      N      0.897712430000     0.571574280000     0.526848080000    -0.299411   
N15      N      0.939944070000     0.612685460000     0.463831650000    -0.305313   
C2       C      0.747156690000     0.609284130000     0.410122550000     0.0547636  
C3       C      0.735101530000     0.641419290000     0.397984630000    -0.106924   
H3       H      0.721999890000     0.654409150000     0.411393910000     0.0407735  
C4       C      0.742677050000     0.654057660000     0.365768770000    -0.0206474  
H4       H      0.734601250000     0.676603550000     0.356005660000     0.0303483  
C6       C      0.657822710000     0.630294490000     0.463112010000     0.0497288  
C7       C      0.661916710000     0.607059930000     0.453636750000    -0.102061   
H7       H      0.680496220000     0.588490990000     0.453300920000     0.0406112  
C8       C      0.637983630000     0.611620310000     0.444569300000    -0.0219216  
H8       H      0.640297210000     0.595704860000     0.438308430000     0.0308114  
C9       C      0.674253710000     0.561637890000     0.535963510000     0.00398767 
H9       H      0.656100360000     0.576702600000     0.529510740000     0.0184817  
C11      C      0.768600020000     0.625394600000     0.461121000000     0.00395032 
H11      H      0.778293330000     0.621708970000     0.441306930000     0.0107714  
C12      C      0.736664060000     0.629508120000     0.507129960000     0.16301    
C13      C      0.780346490000     0.636413490000     0.471147980000    -0.000292576
H13      H      0.799709290000     0.641290540000     0.459705710000     0.0137349  
C15      C      0.738524460000     0.710732390000     0.542991990000     0.0555808  
C16      C      0.763091670000     0.708117270000     0.549276840000    -0.107215   
H16      H      0.781493650000     0.689292450000     0.549708630000     0.0428616  
C17      C      0.760555490000     0.733449240000     0.555105920000    -0.0225038  
H17      H      0.777613130000     0.731995580000     0.558991980000     0.0311895  
C20      C      0.834651740000     0.629229870000     0.507489780000     0.0798455  
H20      H      0.835099480000     0.609289950000     0.524497260000    -0.0415472  
C21      C      0.817327790000     0.677350570000     0.476977060000     0.0417544  
C26      C      0.850653800000     0.665947710000     0.463759680000     0.045917   
C28      C      0.892116150000     0.560386400000     0.459249940000     0.0488715  
C29      C      0.860677130000     0.563974320000     0.475489810000    -0.102733   
H29      H      0.847392260000     0.577403480000     0.488395340000     0.0488139  
C30      C      0.849186340000     0.547087230000     0.472347380000    -0.0204962  
H30      H      0.827291190000     0.548506830000     0.483693700000     0.060402   
C32      C      0.891155210000     0.579028240000     0.552251350000     0.0232842  
C36      C      0.957058560000     0.625960490000     0.432623280000     0.0210831  
Zn1      Zn+2   0.600444660000     0.717206640000     0.200611500000     1.18834    
Zn2      Zn+2   0.649405090000     0.764631390000     0.055148370000     1.19019    
Zn3      Zn+2   0.599548460000     0.902528050000     0.016455760000     1.17696    
O1       O      0.547277010000     0.768160810000     0.179646010000    -0.175776   
O2       O      0.618329530000     0.690109490000     0.152923390000    -0.152384   
O3       O      0.634697440000     0.707851900000     0.100917450000    -0.160387   
N1       N      0.589648030000     0.743770540000     0.224863360000    -0.291365   
N2       N      0.631858000000     0.675890880000     0.217019290000    -0.291758   
N3       N      0.563192380000     0.705163040000     0.211909850000    -0.280484   
N5       N      0.620655400000     0.740800570000     0.154458620000    -0.276216   
N6       N      0.627484570000     0.710040200000     0.126512620000    -0.0335081  
N7       N      0.639310690000     0.759108190000     0.100485660000    -0.281796   
N8       N      0.690468910000     0.734487180000     0.038380770000    -0.301839   
N9       N      0.618542840000     0.764978170000     0.042098910000    -0.284812   
N11      N      0.653879490000     0.807199350000     0.033559190000    -0.292387   
N12      N      0.635078110000     0.861247690000     0.019934010000    -0.299339   
N13      N      0.573943220000     0.911208960000     0.057379260000    -0.305558   
N14      N      0.571573490000     0.897702130000     0.003862070000    -0.299411   
N15      N      0.612690380000     0.939946250000     0.983531310000    -0.305313   
C2       C      0.609291060000     0.747158010000     0.233427070000     0.0547636  
C3       C      0.641412270000     0.735096230000     0.225511030000    -0.106924   
H3       H      0.654398330000     0.722006540000     0.212197700000     0.0407735  
C4       C      0.654050650000     0.742677670000     0.237505020000    -0.0206474  
H4       H      0.676604930000     0.734587810000     0.232803380000     0.0303483  
C6       C      0.630290930000     0.657826250000     0.248755390000     0.0497288  
C7       C      0.607058230000     0.661924530000     0.277373050000    -0.102061   
H7       H      0.588498310000     0.680493480000     0.277708880000     0.0406112  
C8       C      0.611628100000     0.637966990000     0.305822800000    -0.0219216  
H8       H      0.595703250000     0.640294280000     0.325708840000     0.0308114  
C9       C      0.561642480000     0.674238800000     0.228149710000     0.00398767 
H9       H      0.576707050000     0.656107160000     0.237696930000     0.0184817  
C11      C      0.625390030000     0.768597280000     0.144887420000     0.00395032 
H11      H      0.621695820000     0.778307570000     0.158704500000     0.0107714  
C12      C      0.629510960000     0.736663210000     0.126704530000     0.16301    
C13      C      0.636422700000     0.780341980000     0.112095850000    -0.000292576
H13      H      0.641309510000     0.799688780000     0.099310250000     0.0137349  
C15      C      0.710719960000     0.738523870000     0.007748120000     0.0555808  
C16      C      0.708116250000     0.763089430000     0.979525310000    -0.107215   
H16      H      0.689302720000     0.781506920000     0.979501320000     0.0428616  
C17      C      0.733447850000     0.760551660000     0.950907650000    -0.0225038  
H17      H      0.731995740000     0.777591500000     0.931405420000     0.0311895  
C20      C      0.629246880000     0.834651480000     0.028617660000     0.0798455  
H20      H      0.609300760000     0.835094390000     0.031088430000    -0.0415472  
C21      C      0.677339760000     0.817333050000     0.028329810000     0.0417544  
C26      C      0.665945530000     0.850646230000     0.019646160000     0.045917   
C28      C      0.560393040000     0.892120460000     0.088251790000     0.0488715  
C29      C      0.563972890000     0.860658770000     0.099861970000    -0.102733   
H29      H      0.577413880000     0.847398650000     0.086788520000     0.0488139  
C30      C      0.547085950000     0.849202160000     0.131382180000    -0.0204962  
H30      H      0.548503510000     0.827301860000     0.140497620000     0.060402   
C32      C      0.579037640000     0.891164140000     0.977558300000     0.0232842  
C36      C      0.625964450000     0.957058170000     0.984370890000     0.0210831  
Zn1      Zn+2   0.200621010000     0.481727300000     0.600443210000     1.18834    
Zn2      Zn+2   0.055156330000     0.530813200000     0.649402690000     1.19019    
Zn3      Zn+2   0.016443820000     0.481457750000     0.599555660000     1.17696    
O1       O      0.179662800000     0.504904900000     0.547261850000    -0.175776   
O2       O      0.152917340000     0.538635020000     0.618338250000    -0.152384   
O3       O      0.100900010000     0.556544170000     0.634698050000    -0.160387   
N1       N      0.224865530000     0.441721680000     0.589648620000    -0.291365   
N2       N      0.217006370000     0.475232980000     0.631867470000    -0.291758   
N3       N      0.211911400000     0.519746490000     0.563189870000    -0.280484   
N5       N      0.154459690000     0.484086340000     0.620641090000    -0.276216   
N6       N      0.126519570000     0.535950400000     0.627477670000    -0.0335081  
N7       N      0.100489080000     0.501092180000     0.639303740000    -0.281796   
N8       N      0.038375900000     0.536664360000     0.690470110000    -0.301839   
N9       N      0.042095290000     0.574386930000     0.618554140000    -0.284812   
N11      N      0.033562250000     0.505375510000     0.653864450000    -0.292387   
N12      N      0.019921140000     0.483750740000     0.635081860000    -0.299339   
N13      N      0.057394770000     0.457452930000     0.573936490000    -0.305558   
N14      N      0.003860760000     0.526861740000     0.571561680000    -0.299411   
N15      N      0.983547290000     0.463830920000     0.612677080000    -0.305313   
C2       C      0.233420180000     0.410136960000     0.609294780000     0.0547636  
C3       C      0.225493800000     0.397982890000     0.641414690000    -0.106924   
H3       H      0.212193220000     0.411410690000     0.654392190000     0.0407735  
C4       C      0.237492500000     0.365770280000     0.654056350000    -0.0206474  
H4       H      0.232791480000     0.355992440000     0.676605060000     0.0303483  
C6       C      0.248760840000     0.463110330000     0.630308250000     0.0497288  
C7       C      0.277375280000     0.453647610000     0.607063890000    -0.102061   
H7       H      0.277705080000     0.453300460000     0.588497200000     0.0406112  
C8       C      0.305839140000     0.444574590000     0.611621610000    -0.0219216  
H8       H      0.325693180000     0.438304500000     0.595693590000     0.0308114  
C9       C      0.228145440000     0.535961800000     0.561630650000     0.00398767 
H9       H      0.237714640000     0.529492880000     0.576695110000     0.0184817  
C11      C      0.144897020000     0.461130930000     0.625390710000     0.00395032 
H11      H      0.158693150000     0.441306740000     0.621696560000     0.0107714  
C12      C      0.126697810000     0.507113710000     0.629516650000     0.16301    
C13      C      0.112108100000     0.471135510000     0.636425190000    -0.000292576
H13      H      0.099312410000     0.459696940000     0.641294750000     0.0137349  
C15      C      0.007765810000     0.543010460000     0.710715970000     0.0555808  
C16      C      0.979532230000     0.549264650000     0.708101280000    -0.107215   
H16      H      0.979513100000     0.549698560000     0.689294700000     0.0428616  
C17      C      0.950908740000     0.555091630000     0.733432590000    -0.0225038  
H17      H      0.931395840000     0.559009040000     0.731993310000     0.0311895  
C20      C      0.028629600000     0.507481060000     0.629228790000     0.0798455  
H20      H      0.031102360000     0.524506510000     0.609294780000    -0.0415472  
C21      C      0.028346740000     0.476966790000     0.677348690000     0.0417544  
C26      C      0.019652180000     0.463757590000     0.665954390000     0.045917   
C28      C      0.088253060000     0.459234120000     0.560383280000     0.0488715  
C29      C      0.099868570000     0.475494340000     0.563981480000    -0.102733   
H29      H      0.086812160000     0.488393730000     0.577390760000     0.0488139  
C30      C      0.131390530000     0.472333850000     0.547069950000    -0.0204962  
H30      H      0.140497550000     0.483704920000     0.548509230000     0.060402   
C32      C      0.977570940000     0.552230010000     0.579045930000     0.0232842  
C36      C      0.984358420000     0.432623690000     0.625966430000     0.0210831  
Zn1      Zn+2   0.481730430000     0.200607120000     0.717216710000     1.18834    
Zn2      Zn+2   0.530810120000     0.055141010000     0.764640960000     1.19019    
Zn3      Zn+2   0.481462570000     0.016462410000     0.902523890000     1.17696    
O1       O      0.504910470000     0.179643200000     0.768167190000    -0.175776   
O2       O      0.538634240000     0.152921450000     0.690110290000    -0.152384   
O3       O      0.556526850000     0.100912820000     0.707861400000    -0.160387   
N1       N      0.441712650000     0.224865510000     0.743771410000    -0.291365   
N2       N      0.475236440000     0.217007690000     0.675885420000    -0.291758   
N3       N      0.519744410000     0.211934100000     0.705150760000    -0.280484   
N5       N      0.484075620000     0.154450030000     0.740820890000    -0.276216   
N6       N      0.535957790000     0.126510310000     0.710044310000    -0.0335081  
N7       N      0.501087880000     0.100501440000     0.759099730000    -0.281796   
N8       N      0.536664520000     0.038369290000     0.734488060000    -0.301839   
N9       N      0.574379980000     0.042092660000     0.764976790000    -0.284812   
N11      N      0.505378760000     0.033560650000     0.807195640000    -0.292387   
N12      N      0.483759820000     0.019933200000     0.861240570000    -0.299339   
N13      N      0.457459380000     0.057367230000     0.911231520000    -0.305558   
N14      N      0.526856000000     0.003866710000     0.897702300000    -0.299411   
N15      N      0.463833860000     0.983536650000     0.939945140000    -0.305313   
C2       C      0.410126750000     0.233417760000     0.747153720000     0.0547636  
C3       C      0.397979080000     0.225490450000     0.735111750000    -0.106924   
H3       H      0.411399920000     0.212201100000     0.721990320000     0.0407735  
C4       C      0.365755180000     0.237505860000     0.742691950000    -0.0206474  
H4       H      0.355989030000     0.232805050000     0.734608000000     0.0303483  
C6       C      0.463120210000     0.248765780000     0.657822470000     0.0497288  
C7       C      0.453633150000     0.277387390000     0.661924410000    -0.102061   
H7       H      0.453295080000     0.277711930000     0.680491110000     0.0406112  
C8       C      0.444571410000     0.305842950000     0.637960420000    -0.0219216  
H8       H      0.438293040000     0.325685220000     0.640311240000     0.0308114  
C9       C      0.535972640000     0.228158360000     0.674254240000     0.00398767 
H9       H      0.529511810000     0.237694200000     0.656095330000     0.0184817  
C11      C      0.461115890000     0.144896660000     0.768598970000     0.00395032 
H11      H      0.441301070000     0.158696190000     0.778290120000     0.0107714  
C12      C      0.507113860000     0.126703810000     0.736670970000     0.16301    
C13      C      0.471136980000     0.112105870000     0.780329100000    -0.000292576
H13      H      0.459705960000     0.099289990000     0.799711390000     0.0137349  
C15      C      0.543000730000     0.007760750000     0.738518040000     0.0555808  
C16      C      0.549275460000     0.979527930000     0.763081740000    -0.107215   
H16      H      0.549698150000     0.979493350000     0.781504510000     0.0428616  
C17      C      0.555095540000     0.950898750000     0.760563000000    -0.0225038  
H17      H      0.559010900000     0.931403160000     0.777594470000     0.0311895  
C20      C      0.507477770000     0.028611830000     0.834661880000     0.0798455  
H20      H      0.524511400000     0.031091370000     0.835093660000    -0.0415472  
C21      C      0.476980400000     0.028346450000     0.817342560000     0.0417544  
C26      C      0.463754760000     0.019637320000     0.850661870000     0.045917   
C28      C      0.459252020000     0.088255880000     0.892113100000     0.0488715  
C29      C      0.475495680000     0.099869430000     0.860664860000    -0.102733   
H29      H      0.488403960000     0.086808980000     0.847399500000     0.0488139  
C30      C      0.472351440000     0.131373610000     0.849198600000    -0.0204962  
H30      H      0.483691120000     0.140505850000     0.827297570000     0.060402   
C32      C      0.552243830000     0.977568890000     0.891153580000     0.0232842  
C36      C      0.432614870000     0.984371550000     0.957048570000     0.0210831  
Zn1      Zn+2   0.200609500000     0.717200030000     0.481726680000     1.18834    
Zn2      Zn+2   0.055143860000     0.764640210000     0.530806100000     1.19019    
Zn3      Zn+2   0.016449470000     0.902536360000     0.481462810000     1.17696    
O1       O      0.179660360000     0.768164650000     0.504899070000    -0.175776   
O2       O      0.152907450000     0.690106360000     0.538650170000    -0.152384   
O3       O      0.100921850000     0.707851010000     0.556521210000    -0.160387   
N1       N      0.224861180000     0.743767760000     0.441714730000    -0.291365   
N2       N      0.217009000000     0.675898830000     0.475225940000    -0.291758   
N3       N      0.211925590000     0.705159630000     0.519747640000    -0.280484   
N5       N      0.154437660000     0.740811190000     0.484101490000    -0.276216   
N6       N      0.126517030000     0.710044660000     0.535963510000    -0.0335081  
N7       N      0.100488630000     0.759100460000     0.501084980000    -0.281796   
N8       N      0.038384880000     0.734486930000     0.536659160000    -0.301839   
N9       N      0.042097430000     0.764970260000     0.574392260000    -0.284812   
N11      N      0.033564940000     0.807175790000     0.505378830000    -0.292387   
N12      N      0.019932430000     0.861248710000     0.483741670000    -0.299339   
N13      N      0.057391010000     0.911218830000     0.457450840000    -0.305558   
N14      N      0.003861920000     0.897720880000     0.526848080000    -0.299411   
N15      N      0.983537680000     0.939940240000     0.463831650000    -0.305313   
C2       C      0.233441970000     0.747151800000     0.410122550000     0.0547636  
C3       C      0.225502680000     0.735095120000     0.397984630000    -0.106924   
H3       H      0.212199010000     0.722008630000     0.411393910000     0.0407735  
C4       C      0.237511050000     0.742667490000     0.365768770000    -0.0206474  
H4       H      0.232798820000     0.734591200000     0.356005660000     0.0303483  
C6       C      0.248774020000     0.657818270000     0.463112010000     0.0497288  
C7       C      0.277369920000     0.661926560000     0.453636750000    -0.102061   
H7       H      0.277695000000     0.680493230000     0.453300920000     0.0406112  
C8       C      0.305830430000     0.637968060000     0.444569300000    -0.0219216  
H8       H      0.325694690000     0.640303790000     0.438308430000     0.0308114  
C9       C      0.228148270000     0.674243390000     0.535963510000     0.00398767 
H9       H      0.237700460000     0.656107680000     0.529510740000     0.0184817  
C11      C      0.144884730000     0.768599670000     0.461121000000     0.00395032 
H11      H      0.158695210000     0.778302760000     0.441306930000     0.0107714  
C12      C      0.126684440000     0.736663140000     0.507129960000     0.16301    
C13      C      0.112102670000     0.780342270000     0.471147980000    -0.000292576
H13      H      0.099295220000     0.799693610000     0.459705710000     0.0137349  
C15      C      0.007755790000     0.738527560000     0.542991990000     0.0555808  
C16      C      0.979527180000     0.763096980000     0.549276840000    -0.107215   
H16      H      0.979492400000     0.781498240000     0.549708630000     0.0428616  
C17      C      0.950888510000     0.760565930000     0.555105920000    -0.0225038  
H17      H      0.931393140000     0.777612230000     0.558991980000     0.0311895  
C20      C      0.028623280000     0.834651790000     0.507489780000     0.0798455  
H20      H      0.031092900000     0.835111590000     0.524497260000    -0.0415472  
C21      C      0.028344620000     0.817344150000     0.476977060000     0.0417544  
C26      C      0.019650170000     0.850653300000     0.463759680000     0.045917   
C28      C      0.088251940000     0.892119170000     0.459249940000     0.0488715  
C29      C      0.099861080000     0.860652150000     0.475489810000    -0.102733   
H29      H      0.086797010000     0.847394340000     0.488395340000     0.0488139  
C30      C      0.131370330000     0.849192930000     0.472347380000    -0.0204962  
H30      H      0.140504430000     0.827295340000     0.483693700000     0.060402   
C32      C      0.977549310000     0.891152870000     0.552251350000     0.0232842  
C36      C      0.984353600000     0.957060010000     0.432623280000     0.0210831  
Zn1      Zn+2   0.481730520000     0.600439780000     0.200611500000     1.18834    
Zn2      Zn+2   0.530822960000     0.649402430000     0.055148370000     1.19019    
Zn3      Zn+2   0.481478740000     0.599540320000     0.016455760000     1.17696    
O1       O      0.504911870000     0.547269490000     0.179646010000    -0.175776   
O2       O      0.538632340000     0.618348650000     0.152923390000    -0.152384   
O3       O      0.556532250000     0.634711470000     0.100917450000    -0.160387   
N1       N      0.441726740000     0.589641900000     0.224863360000    -0.291365   
N2       N      0.475229890000     0.631857360000     0.217019290000    -0.291758   
N3       N      0.519742660000     0.563179240000     0.211909850000    -0.280484   
N5       N      0.484090530000     0.620641300000     0.154458620000    -0.276216   
N6       N      0.535965130000     0.627491480000     0.126512620000    -0.0335081  
N7       N      0.501095940000     0.639310770000     0.100485660000    -0.281796   
N8       N      0.536669480000     0.690476270000     0.038380770000    -0.301839   
N9       N      0.574382890000     0.618539000000     0.042098910000    -0.284812   
N11      N      0.505374840000     0.653884890000     0.033559190000    -0.292387   
N12      N      0.483757420000     0.635064200000     0.019934010000    -0.299339   
N13      N      0.457465130000     0.573935250000     0.057379260000    -0.305558   
N14      N      0.526846470000     0.571578140000     0.003862070000    -0.299411   
N15      N      0.463841040000     0.612691470000     0.983531310000    -0.305313   
C2       C      0.410130270000     0.609290340000     0.233427070000     0.0547636  
C3       C      0.397964500000     0.641420390000     0.225511030000    -0.106924   
H3       H      0.411407220000     0.654407050000     0.212197700000     0.0407735  
C4       C      0.365744300000     0.654067840000     0.237505020000    -0.0206474  
H4       H      0.356006350000     0.676600160000     0.232803380000     0.0303483  
C6       C      0.463116370000     0.630302480000     0.248755390000     0.0497288  
C7       C      0.453653030000     0.607057910000     0.277373050000    -0.102061   
H7       H      0.453308360000     0.588491230000     0.277708880000     0.0406112  
C8       C      0.444559310000     0.611641860000     0.305822800000    -0.0219216  
H8       H      0.438300190000     0.595695360000     0.325708840000     0.0308114  
C9       C      0.535977370000     0.561633300000     0.228149710000     0.00398767 
H9       H      0.529506040000     0.576702080000     0.237696930000     0.0184817  
C11      C      0.461136670000     0.625392210000     0.144887420000     0.00395032 
H11      H      0.441310730000     0.621691160000     0.158704500000     0.0107714  
C12      C      0.507126890000     0.629508190000     0.126704530000     0.16301    
C13      C      0.471140590000     0.636413200000     0.112095850000    -0.000292576
H13      H      0.459702460000     0.641285700000     0.099310250000     0.0137349  
C15      C      0.542995580000     0.710728700000     0.007748120000     0.0555808  
C16      C      0.549263890000     0.708109720000     0.979525310000    -0.107215   
H16      H      0.549690150000     0.689301130000     0.979501320000     0.0428616  
C17      C      0.555101520000     0.733434970000     0.950907650000    -0.0225038  
H17      H      0.558990460000     0.731997470000     0.931405420000     0.0311895  
C20      C      0.507481480000     0.629229560000     0.028617660000     0.0798455  
H20      H      0.524517700000     0.609295380000     0.031088430000    -0.0415472  
C21      C      0.476989520000     0.677339460000     0.028329810000     0.0417544  
C26      C      0.463762460000     0.665940650000     0.019646160000     0.045917   
C28      C      0.459242030000     0.560387690000     0.088251790000     0.0488715  
C29      C      0.475496200000     0.563980930000     0.099861970000    -0.102733   
H29      H      0.488403010000     0.577407800000     0.086788520000     0.0488139  
C30      C      0.472341890000     0.547073840000     0.131382180000    -0.0204962  
H30      H      0.483704330000     0.548490730000     0.140497620000     0.060402   
C32      C      0.552244060000     0.579039520000     0.977558300000     0.0232842  
C36      C      0.432618400000     0.625958640000     0.984370890000     0.0210831  
Zn1      Zn+2   0.717213650000     0.200609340000     0.600443210000     1.18834    
Zn2      Zn+2   0.764640140000     0.055151650000     0.649402690000     1.19019    
Zn3      Zn+2   0.902536880000     0.016448380000     0.599555660000     1.17696    
O1       O      0.768164070000     0.179662950000     0.547261850000    -0.175776   
O2       O      0.690099780000     0.152917640000     0.618338250000    -0.152384   
O3       O      0.707859700000     0.100920470000     0.634698050000    -0.160387   
N1       N      0.743772670000     0.224878640000     0.589648620000    -0.291365   
N2       N      0.675892890000     0.217002490000     0.631867470000    -0.291758   
N3       N      0.705154480000     0.211918930000     0.563189870000    -0.280484   
N5       N      0.740806610000     0.154456870000     0.620641090000    -0.276216   
N6       N      0.710043970000     0.126531370000     0.627477670000    -0.0335081  
N7       N      0.759103350000     0.100493420000     0.639303740000    -0.281796   
N8       N      0.734500560000     0.038364100000     0.690470110000    -0.301839   
N9       N      0.764969820000     0.042094700000     0.618554140000    -0.284812   
N11      N      0.807195900000     0.033581310000     0.653864450000    -0.292387   
N12      N      0.861259510000     0.019917400000     0.635081860000    -0.299339   
N13      N      0.911218290000     0.057374340000     0.573936490000    -0.305558   
N14      N      0.897716310000     0.003864710000     0.571561680000    -0.299411   
N15      N      0.939938650000     0.983548610000     0.612677080000    -0.305313   
C2       C      0.747140990000     0.233437460000     0.609294780000     0.0547636  
C3       C      0.735102220000     0.225512610000     0.641414690000    -0.106924   
H3       H      0.722005890000     0.212208190000     0.654392190000     0.0407735  
C4       C      0.742691260000     0.237491840000     0.654056350000    -0.0206474  
H4       H      0.734603720000     0.232802610000     0.676605060000     0.0303483  
C6       C      0.657819130000     0.248755050000     0.630308250000     0.0497288  
C7       C      0.661926310000     0.277377820000     0.607063890000    -0.102061   
H7       H      0.680504080000     0.277709150000     0.588497200000     0.0406112  
C8       C      0.637981190000     0.305824900000     0.611621610000    -0.0219216  
H8       H      0.640297510000     0.325699000000     0.595693590000     0.0308114  
C9       C      0.674253040000     0.228156850000     0.561630650000     0.00398767 
H9       H      0.656092930000     0.237700120000     0.576695110000     0.0184817  
C11      C      0.768598740000     0.144890180000     0.625390710000     0.00395032 
H11      H      0.778310770000     0.158696110000     0.621696560000     0.0107714  
C12      C      0.736648950000     0.126711120000     0.629516650000     0.16301    
C13      C      0.780335820000     0.112105120000     0.636425190000    -0.000292576
H13      H      0.799693490000     0.099309580000     0.641294750000     0.0137349  
C15      C      0.738526350000     0.007755510000     0.710715970000     0.0555808  
C16      C      0.763084430000     0.979535720000     0.708101280000    -0.107215   
H16      H      0.781498260000     0.979494690000     0.689294700000     0.0428616  
C17      C      0.760566900000     0.950895780000     0.733432590000    -0.0225038  
H17      H      0.777593010000     0.931405530000     0.731993310000     0.0311895  
C20      C      0.834661280000     0.028630630000     0.629228790000     0.0798455  
H20      H      0.835113020000     0.031091330000     0.609294780000    -0.0415472  
C21      C      0.817331850000     0.028331460000     0.677348690000     0.0417544  
C26      C      0.850640280000     0.019645480000     0.665954390000     0.045917   
C28      C      0.892111450000     0.088262430000     0.560383280000     0.0488715  
C29      C      0.860655830000     0.099863740000     0.563981480000    -0.102733   
H29      H      0.847399600000     0.086799860000     0.577390760000     0.0488139  
C30      C      0.849204340000     0.131373720000     0.547069950000    -0.0204962  
H30      H      0.827290060000     0.140505800000     0.548509230000     0.060402   
C32      C      0.891163910000     0.977548150000     0.579045930000     0.0232842  
C36      C      0.957054660000     0.984365760000     0.625966430000     0.0210831  
Zn1      Zn+2   0.600452320000     0.481725090000     0.717216710000     1.18834    
Zn2      Zn+2   0.649407310000     0.530802560000     0.764640960000     1.19019    
Zn3      Zn+2   0.599549190000     0.481471790000     0.902523890000     1.17696    
O1       O      0.547266380000     0.504907770000     0.768167190000    -0.175776   
O2       O      0.618335810000     0.538638820000     0.690110290000    -0.152384   
O3       O      0.634708740000     0.556536530000     0.707861400000    -0.160387   
N1       N      0.589653670000     0.441708560000     0.743771410000    -0.291365   
N2       N      0.631862900000     0.475238170000     0.675885420000    -0.291758   
N3       N      0.563191540000     0.519739050000     0.705150760000    -0.280484   
N5       N      0.620651890000     0.484079500000     0.740820890000    -0.276216   
N6       N      0.627476830000     0.535951960000     0.710044310000    -0.0335081  
N7       N      0.639314760000     0.501100200000     0.759099730000    -0.281796   
N8       N      0.690478940000     0.536669550000     0.734488060000    -0.301839   
N9       N      0.618556130000     0.574384900000     0.764976790000    -0.284812   
N11      N      0.653867270000     0.505377470000     0.807195640000    -0.292387   
N12      N      0.635076220000     0.483743920000     0.861240570000    -0.299339   
N13      N      0.573931560000     0.457445820000     0.911231520000    -0.305558   
N14      N      0.571566670000     0.526863730000     0.897702300000    -0.299411   
N15      N      0.612667350000     0.463841570000     0.939945140000    -0.305313   
C2       C      0.609289730000     0.410139870000     0.747153720000     0.0547636  
C3       C      0.641405970000     0.397983350000     0.735111750000    -0.106924   
H3       H      0.654398840000     0.411403600000     0.721990320000     0.0407735  
C4       C      0.654059670000     0.365761700000     0.742691950000    -0.0206474  
H4       H      0.676597390000     0.355994880000     0.734608000000     0.0303483  
C6       C      0.630304750000     0.463121060000     0.657822470000     0.0497288  
C7       C      0.607065020000     0.453634560000     0.661924410000    -0.102061   
H7       H      0.588506830000     0.453303230000     0.680491110000     0.0406112  
C8       C      0.611631760000     0.444570030000     0.637960420000    -0.0219216  
H8       H      0.595694300000     0.438290720000     0.640311240000     0.0308114  
C9       C      0.561635580000     0.535963310000     0.674254240000     0.00398767 
H9       H      0.576703540000     0.529509580000     0.656095330000     0.0184817  
C11      C      0.625382820000     0.461137410000     0.768598970000     0.00395032 
H11      H      0.621697560000     0.441306820000     0.778290120000     0.0107714  
C12      C      0.629526410000     0.507106410000     0.736670970000     0.16301    
C13      C      0.636435190000     0.471136260000     0.780329100000    -0.000292576
H13      H      0.641295530000     0.459699960000     0.799711390000     0.0137349  
C15      C      0.710724950000     0.542993080000     0.738518040000     0.0555808  
C16      C      0.708109220000     0.549279480000     0.763081740000    -0.107215   
H16      H      0.689307220000     0.549697220000     0.781504510000     0.0428616  
C17      C      0.733450680000     0.555094600000     0.760563000000    -0.0225038  
H17      H      0.732008110000     0.559006660000     0.777594470000     0.0311895  
C20      C      0.629228640000     0.507484870000     0.834661880000     0.0798455  
H20      H      0.609298650000     0.524506560000     0.835093660000    -0.0415472  
C21      C      0.677328690000     0.476981780000     0.817342560000     0.0417544  
C26      C      0.665953360000     0.463749430000     0.850661870000     0.045917   
C28      C      0.560377950000     0.459250180000     0.892113100000     0.0488715  
C29      C      0.563981580000     0.475500030000     0.860664860000    -0.102733   
H29      H      0.577403060000     0.488402850000     0.847399500000     0.0488139  
C30      C      0.547089420000     0.472333740000     0.849198600000    -0.0204962  
H30      H      0.548495860000     0.483704980000     0.827297570000     0.060402   
C32      C      0.579030750000     0.552250740000     0.891153580000     0.0232842  
C36      C      0.625969640000     0.432629480000     0.957048570000     0.0210831  
Zn1      Zn+2   0.600456630000     0.200603360000     0.481726680000     1.18834    
Zn2      Zn+2   0.649407000000     0.055150930000     0.530806100000     1.19019    
Zn3      Zn+2   0.599547560000     0.016460660000     0.481462810000     1.17696    
O1       O      0.547268250000     0.179648820000     0.504899070000    -0.175776   
O2       O      0.618347790000     0.152906430000     0.538650170000    -0.152384   
O3       O      0.634708850000     0.100903060000     0.556521210000    -0.160387   
N1       N      0.589647020000     0.224864250000     0.441714730000    -0.291365   
N2       N      0.631870880000     0.217018410000     0.475225940000    -0.291758   
N3       N      0.563171690000     0.211925380000     0.519747640000    -0.280484   
N5       N      0.620644970000     0.154443880000     0.484101490000    -0.276216   
N6       N      0.627475070000     0.126526980000     0.535963510000    -0.0335081  
N7       N      0.639302760000     0.100497370000     0.501084980000    -0.281796   
N8       N      0.690481590000     0.038363750000     0.536659160000    -0.301839   
N9       N      0.618552710000     0.042092250000     0.574392260000    -0.284812   
N11      N      0.653873450000     0.033569900000     0.505378830000    -0.292387   
N12      N      0.635081690000     0.019930250000     0.483741670000    -0.299339   
N13      N      0.573929610000     0.057393680000     0.457450840000    -0.305558   
N14      N      0.571577250000     0.003865250000     0.526848080000    -0.299411   
N15      N      0.612691770000     0.983544060000     0.463831650000    -0.305313   
C2       C      0.609289780000     0.233427370000     0.410122550000     0.0547636  
C3       C      0.641410830000     0.225509440000     0.397984630000    -0.106924   
H3       H      0.654406870000     0.212196780000     0.411393910000     0.0407735  
C4       C      0.654054120000     0.237491940000     0.365768770000    -0.0206474  
H4       H      0.676593950000     0.232808060000     0.356005660000     0.0303483  
C6       C      0.630302250000     0.248761090000     0.463112010000     0.0497288  
C7       C      0.607056710000     0.277385230000     0.453636750000    -0.102061   
H7       H      0.588499250000     0.277700710000     0.453300920000     0.0406112  
C8       C      0.611627640000     0.305828190000     0.444569300000    -0.0219216  
H8       H      0.595699350000     0.325691390000     0.438308430000     0.0308114  
C9       C      0.561645490000     0.228141060000     0.535963510000     0.00398767 
H9       H      0.576707700000     0.237687450000     0.529510740000     0.0184817  
C11      C      0.625393930000     0.144893200000     0.461121000000     0.00395032 
H11      H      0.621704210000     0.158689810000     0.441306930000     0.0107714  
C12      C      0.629501640000     0.126707260000     0.507129960000     0.16301    
C13      C      0.636422120000     0.112104730000     0.471147980000    -0.000292576
H13      H      0.641300770000     0.099296000000     0.459705710000     0.0137349  
C15      C      0.710727430000     0.007756540000     0.542991990000     0.0555808  
C16      C      0.708098180000     0.979532930000     0.549276840000    -0.107215   
H16      H      0.689290910000     0.979502090000     0.549708630000     0.0428616  
C17      C      0.733443950000     0.950902920000     0.555105920000    -0.0225038  
H17      H      0.732006930000     0.931401620000     0.558991980000     0.0311895  
C20      C      0.629246190000     0.028614430000     0.507489780000     0.0798455  
H20      H      0.609290470000     0.031109670000     0.524497260000    -0.0415472  
C21      C      0.677350210000     0.028336700000     0.476977060000     0.0417544  
C26      C      0.665955610000     0.019647780000     0.463759680000     0.045917   
C28      C      0.560381650000     0.088252960000     0.459249940000     0.0488715  
C29      C      0.563982970000     0.099869580000     0.475489810000    -0.102733   
H29      H      0.577406780000     0.086792700000     0.488395340000     0.0488139  
C30      C      0.547076040000     0.131380930000     0.472347380000    -0.0204962  
H30      H      0.548490780000     0.140512610000     0.483693700000     0.060402   
C32      C      0.579041020000     0.977546320000     0.552251350000     0.0232842  
C36      C      0.625950150000     0.984357630000     0.432623280000     0.0210831  
Zn1      Zn+2   0.717204710000     0.481727940000     0.200611500000     1.18834    
Zn2      Zn+2   0.764634550000     0.530803660000     0.055148370000     1.19019    
Zn3      Zn+2   0.902528040000     0.481461730000     0.016455760000     1.17696    
O1       O      0.768176110000     0.504909550000     0.179646010000    -0.175776   
O2       O      0.690103110000     0.538649560000     0.152923390000    -0.152384   
O3       O      0.707852540000     0.556527660000     0.100917450000    -0.160387   
N1       N      0.743772860000     0.441710070000     0.224863360000    -0.291365   
N2       N      0.675884220000     0.475218340000     0.217019290000    -0.291758   
N3       N      0.705166090000     0.519733740000     0.211909850000    -0.280484   
N5       N      0.740806430000     0.484085360000     0.154458620000    -0.276216   
N6       N      0.710037360000     0.535964170000     0.126512620000    -0.0335081  
N7       N      0.759118700000     0.501081240000     0.100485660000    -0.281796   
N8       N      0.734480520000     0.536664260000     0.038380770000    -0.301839   
N9       N      0.764955460000     0.574392400000     0.042098910000    -0.284812   
N11      N      0.807205740000     0.505365040000     0.033559190000    -0.292387   
N12      N      0.861261030000     0.483739960000     0.019934010000    -0.299339   
N13      N      0.911223380000     0.457462400000     0.057379260000    -0.305558   
N14      N      0.897709380000     0.526843520000     0.003862070000    -0.299411   
N15      N      0.939942450000     0.463832380000     0.983531310000    -0.305313   
C2       C      0.747151280000     0.410133070000     0.233427070000     0.0547636  
C3       C      0.735092290000     0.397980820000     0.225511030000    -0.106924   
H3       H      0.721996420000     0.411397190000     0.212197700000     0.0407735  
C4       C      0.742680120000     0.365757950000     0.237505020000    -0.0206474  
H4       H      0.734596330000     0.355994510000     0.232803380000     0.0303483  
C6       C      0.657817410000     0.463124360000     0.248755390000     0.0497288  
C7       C      0.661915370000     0.453652980000     0.277373050000    -0.102061   
H7       H      0.680495440000     0.453292260000     0.277708880000     0.0406112  
C8       C      0.637969890000     0.444576820000     0.305822800000    -0.0219216  
H8       H      0.640298710000     0.438287390000     0.325708840000     0.0308114  
C9       C      0.674261010000     0.535964040000     0.228149710000     0.00398767 
H9       H      0.656109260000     0.529502300000     0.237696930000     0.0184817  
C11      C      0.768585560000     0.461131570000     0.144887420000     0.00395032 
H11      H      0.778288630000     0.441305250000     0.158704500000     0.0107714  
C12      C      0.736668610000     0.507109930000     0.126704530000     0.16301    
C13      C      0.780351850000     0.471134830000     0.112095850000    -0.000292576
H13      H      0.799688770000     0.459701130000     0.099310250000     0.0137349  
C15      C      0.738516430000     0.543007790000     0.007748120000     0.0555808  
C16      C      0.763080140000     0.549276940000     0.979525310000    -0.107215   
H16      H      0.781510980000     0.549692020000     0.979501320000     0.0428616  
C17      C      0.760548160000     0.555107120000     0.950907650000    -0.0225038  
H17      H      0.777593970000     0.559007020000     0.931405420000     0.0311895  
C20      C      0.834664970000     0.507487160000     0.028617660000     0.0798455  
H20      H      0.835104110000     0.524507660000     0.031088430000    -0.0415472  
C21      C      0.817351900000     0.476983540000     0.028329810000     0.0417544  
C26      C      0.850656840000     0.463752820000     0.019646160000     0.045917   
C28      C      0.892112820000     0.459248540000     0.088251790000     0.0488715  
C29      C      0.860649030000     0.475506800000     0.099861970000    -0.102733   
H29      H      0.847394270000     0.488413500000     0.086788520000     0.0488139  
C30      C      0.849189650000     0.472350290000     0.131382180000    -0.0204962  
H30      H      0.827305520000     0.483695640000     0.140497620000     0.060402   
C32      C      0.891165180000     0.552239450000     0.977558300000     0.0232842  
C36      C      0.957051430000     0.432613710000     0.984370890000     0.0210831  
Zn1      Zn+2   0.481733120000     0.717206010000     0.600443210000     1.18834    
Zn2      Zn+2   0.530800530000     0.764640930000     0.649402690000     1.19019    
Zn3      Zn+2   0.481474640000     0.902524070000     0.599555660000     1.17696    
O1       O      0.504910960000     0.768178780000     0.547261850000    -0.175776   
O2       O      0.538636040000     0.690094950000     0.618338250000    -0.152384   
O3       O      0.556541920000     0.707845790000     0.634698050000    -0.160387   
N1       N      0.441712860000     0.743759530000     0.589648620000    -0.291365   
N2       N      0.475244260000     0.675882910000     0.631867470000    -0.291758   
N3       N      0.519743930000     0.705153180000     0.563189870000    -0.280484   
N5       N      0.484092290000     0.740824170000     0.620641090000    -0.276216   
N6       N      0.535958460000     0.710049040000     0.627477670000    -0.0335081  
N7       N      0.501083920000     0.759119130000     0.639303740000    -0.281796   
N8       N      0.536664410000     0.734487280000     0.690470110000    -0.301839   
N9       N      0.574380430000     0.764972700000     0.618554140000    -0.284812   
N11      N      0.505377070000     0.807187200000     0.653864450000    -0.292387   
N12      N      0.483748480000     0.861235860000     0.635081860000    -0.299339   
N13      N      0.457461440000     0.911222110000     0.573936490000    -0.305558   
N14      N      0.526841340000     0.897720340000     0.571561680000    -0.299411   
N15      N      0.463842150000     0.939944790000     0.612677080000    -0.305313   
C2       C      0.410124150000     0.747139280000     0.609294780000     0.0547636  
C3       C      0.397988970000     0.735098290000     0.641414690000    -0.106924   
H3       H      0.411408380000     0.721997420000     0.654392190000     0.0407735  
C4       C      0.365759570000     0.742690000000     0.654056350000    -0.0206474  
H4       H      0.355999430000     0.734608360000     0.676605060000     0.0303483  
C6       C      0.463122770000     0.657812230000     0.630308250000     0.0497288  
C7       C      0.453634200000     0.661919160000     0.607063890000    -0.102061   
H7       H      0.453293330000     0.680501670000     0.588497200000     0.0406112  
C8       C      0.444569050000     0.637964760000     0.611621610000    -0.0219216  
H8       H      0.438295810000     0.640311390000     0.595693590000     0.0308114  
C9       C      0.535970540000     0.674259170000     0.561630650000     0.00398767 
H9       H      0.529508320000     0.656097740000     0.576695110000     0.0184817  
C11      C      0.461132790000     0.768596650000     0.625390710000     0.00395032 
H11      H      0.441299190000     0.778309060000     0.621696560000     0.0107714  
C12      C      0.507116690000     0.736667000000     0.629516650000     0.16301    
C13      C      0.471130580000     0.780342660000     0.636425190000    -0.000292576
H13      H      0.459699040000     0.799707200000     0.641294750000     0.0137349  
C15      C      0.542991550000     0.738526530000     0.710715970000     0.0555808  
C16      C      0.549267650000     0.763099760000     0.708101280000    -0.107215   
H16      H      0.549710430000     0.781490840000     0.689294700000     0.0428616  
C17      C      0.555108250000     0.760558790000     0.733432590000    -0.0225038  
H17      H      0.559003430000     0.777593520000     0.731993310000     0.0311895  
C20      C      0.507480010000     0.834668000000     0.629228790000     0.0798455  
H20      H      0.524500830000     0.835093240000     0.609294780000    -0.0415472  
C21      C      0.476983710000     0.817338910000     0.677348690000     0.0417544  
C26      C      0.463752820000     0.850651000000     0.665954390000     0.045917   
C28      C      0.459232300000     0.892128650000     0.560383280000     0.0488715  
C29      C      0.475493810000     0.860668920000     0.563981480000    -0.102733   
H29      H      0.488408460000     0.847401510000     0.577390760000     0.0488139  
C30      C      0.472346160000     0.849208340000     0.547069950000    -0.0204962  
H30      H      0.483702840000     0.827288530000     0.548509230000     0.060402   
C32      C      0.552235700000     0.891154700000     0.579045930000     0.0232842  
C36      C      0.432614360000     0.957068140000     0.625966430000     0.0210831  
Zn1      Zn+2   0.200611520000     0.600436930000     0.717216710000     1.18834    
Zn2      Zn+2   0.055152600000     0.649401330000     0.764640960000     1.19019    
Zn3      Zn+2   0.016444440000     0.599550380000     0.902523890000     1.17696    
O1       O      0.179647360000     0.547267700000     0.768167190000    -0.175776   
O2       O      0.152919340000     0.618337910000     0.690110290000    -0.152384   
O3       O      0.100902680000     0.634697720000     0.707861400000    -0.160387   
N1       N      0.224873250000     0.589640380000     0.743771410000    -0.291365   
N2       N      0.217014910000     0.631877200000     0.675885420000    -0.291758   
N3       N      0.211912970000     0.563184560000     0.705150760000    -0.280484   
N5       N      0.154443000000     0.620635440000     0.740820890000    -0.276216   
N6       N      0.126512470000     0.627479270000     0.710044310000    -0.0335081  
N7       N      0.100497300000     0.639307110000     0.759099730000    -0.281796   
N8       N      0.038368160000     0.690481560000     0.734488060000    -0.301839   
N9       N      0.042086780000     0.618554120000     0.764976790000    -0.284812   
N11      N      0.033558010000     0.653874710000     0.807195640000    -0.292387   
N12      N      0.019934380000     0.635068170000     0.861240570000    -0.299339   
N13      N      0.057368940000     0.573941290000     0.911231520000    -0.305558   
N14      N      0.003874710000     0.571575740000     0.897702300000    -0.299411   
N15      N      0.983539240000     0.612678040000     0.939945140000    -0.305313   
C2       C      0.233429480000     0.609297130000     0.747153720000     0.0547636  
C3       C      0.225483290000     0.641422920000     0.735111750000    -0.106924   
H3       H      0.212191010000     0.654413460000     0.721990320000     0.0407735  
C4       C      0.237492880000     0.654048960000     0.742691950000    -0.0206474  
H4       H      0.232805260000     0.676600540000     0.734608000000     0.0303483  
C6       C      0.248752250000     0.630299170000     0.657822470000     0.0497288  
C7       C      0.277377100000     0.607062100000     0.661924410000    -0.102061   
H7       H      0.277706660000     0.588502200000     0.680491110000     0.0406112  
C8       C      0.305836100000     0.611635070000     0.637960420000    -0.0219216  
H8       H      0.325692820000     0.595698690000     0.640311240000     0.0308114  
C9       C      0.228137220000     0.561632570000     0.674254240000     0.00398767 
H9       H      0.237689000000     0.576709360000     0.656095330000     0.0184817  
C11      C      0.144890680000     0.625398050000     0.768598970000     0.00395032 
H11      H      0.158702650000     0.621692730000     0.778290120000     0.0107714  
C12      C      0.126688440000     0.629527290000     0.736670970000     0.16301    
C13      C      0.112109720000     0.636414630000     0.780329100000    -0.000292576
H13      H      0.099286800000     0.641307140000     0.799711390000     0.0137349  
C15      C      0.007767260000     0.710713990000     0.738518040000     0.0555808  
C16      C      0.979538750000     0.708112260000     0.763081740000    -0.107215   
H16      H      0.979495300000     0.689306330000     0.781504510000     0.0428616  
C17      C      0.950895950000     0.733445060000     0.760563000000    -0.0225038  
H17      H      0.931411280000     0.731997120000     0.777594470000     0.0311895  
C20      C      0.028611800000     0.629249890000     0.834661880000     0.0798455  
H20      H      0.031107270000     0.609294270000     0.835093660000    -0.0415472  
C21      C      0.028348030000     0.677337700000     0.817342560000     0.0417544  
C26      C      0.019641000000     0.665937250000     0.850661870000     0.045917   
C28      C      0.088256610000     0.560389320000     0.892113100000     0.0488715  
C29      C      0.099857570000     0.563974160000     0.860664860000    -0.102733   
H29      H      0.086793160000     0.577397150000     0.847399500000     0.0488139  
C30      C      0.131371520000     0.547079910000     0.849198600000    -0.0204962  
H30      H      0.140495550000     0.548500070000     0.827297570000     0.060402   
C32      C      0.977565710000     0.579050810000     0.891153580000     0.0232842  
C36      C      0.984360770000     0.625974410000     0.957048570000     0.0210831  
Zn1      Zn+2   0.717214280000     0.600439780000     0.200611500000     1.18834    
Zn2      Zn+2   0.764641900000     0.649402430000     0.055148370000     1.19019    
Zn3      Zn+2   0.902540850000     0.599540320000     0.016455760000     1.17696    
O1       O      0.768168720000     0.547269490000     0.179646010000    -0.175776   
O2       O      0.690091700000     0.618348650000     0.152923390000    -0.152384   
O3       O      0.707854500000     0.634711470000     0.100917450000    -0.160387   
N1       N      0.743783670000     0.589641900000     0.224863360000    -0.291365   
N2       N      0.675889550000     0.631857360000     0.217019290000    -0.291758   
N3       N      0.705164330000     0.563179240000     0.211909850000    -0.280484   
N5       N      0.740805630000     0.620641300000     0.154458620000    -0.276216   
N6       N      0.710046440000     0.627491480000     0.126512620000    -0.0335081  
N7       N      0.759103720000     0.639310770000     0.100485660000    -0.281796   
N8       N      0.734489150000     0.690476270000     0.038380770000    -0.301839   
N9       N      0.764975290000     0.618539000000     0.042098910000    -0.284812   
N11      N      0.807196740000     0.653884890000     0.033559190000    -0.292387   
N12      N      0.861260040000     0.635064200000     0.019934010000    -0.299339   
N13      N      0.911216450000     0.573935250000     0.057379260000    -0.305558   
N14      N      0.897709400000     0.571578140000     0.003862070000    -0.299411   
N15      N      0.939940110000     0.612691470000     0.983531310000    -0.305313   
C2       C      0.747148410000     0.609290340000     0.233427070000     0.0547636  
C3       C      0.735100150000     0.641420390000     0.225511030000    -0.106924   
H3       H      0.722003700000     0.654407050000     0.212197700000     0.0407735  
C4       C      0.742678920000     0.654067840000     0.237505020000    -0.0206474  
H4       H      0.734605780000     0.676600160000     0.232803380000     0.0303483  
C6       C      0.657821850000     0.630302480000     0.248755390000     0.0497288  
C7       C      0.661931680000     0.607057910000     0.277373050000    -0.102061   
H7       H      0.680507190000     0.588491230000     0.277708880000     0.0406112  
C8       C      0.637972110000     0.611641860000     0.305822800000    -0.0219216  
H8       H      0.640291700000     0.595695360000     0.325708840000     0.0308114  
C9       C      0.674255280000     0.561633300000     0.228149710000     0.00398767 
H9       H      0.656091040000     0.576702080000     0.237696930000     0.0184817  
C11      C      0.768599370000     0.625392210000     0.144887420000     0.00395032 
H11      H      0.778309280000     0.621691160000     0.158704500000     0.0107714  
C12      C      0.736656470000     0.629508190000     0.126704530000     0.16301    
C13      C      0.780346450000     0.636413200000     0.112095850000    -0.000292576
H13      H      0.799697680000     0.641285700000     0.099310250000     0.0137349  
C15      C      0.738523680000     0.710728700000     0.007748120000     0.0555808  
C16      C      0.763085410000     0.708109720000     0.979525310000    -0.107215   
H16      H      0.781491720000     0.689301130000     0.979501320000     0.0428616  
C17      C      0.760559780000     0.733434970000     0.950907650000    -0.0225038  
H17      H      0.777590990000     0.731997470000     0.931405420000     0.0311895  
C20      C      0.834667380000     0.629229560000     0.028617660000     0.0798455  
H20      H      0.835114170000     0.609295380000     0.031088430000    -0.0415472  
C21      C      0.817337290000     0.677339460000     0.028329810000     0.0417544  
C26      C      0.850646820000     0.665940650000     0.019646160000     0.045917   
C28      C      0.892114570000     0.560387690000     0.088251790000     0.0488715  
C29      C      0.860656980000     0.563980930000     0.099861970000    -0.102733   
H29      H      0.847396750000     0.577407800000     0.086788520000     0.0488139  
C30      C      0.849198160000     0.547073840000     0.131382180000    -0.0204962  
H30      H      0.827303400000     0.548490730000     0.140497620000     0.060402   
C32      C      0.891162040000     0.579039520000     0.977558300000     0.0232842  
C36      C      0.957055990000     0.625958640000     0.984370890000     0.0210831  
Zn1      Zn+2   0.600459870000     0.717200030000     0.481726680000     1.18834    
Zn2      Zn+2   0.649405920000     0.764640210000     0.530806100000     1.19019    
Zn3      Zn+2   0.599547440000     0.902536360000     0.481462810000     1.17696    
O1       O      0.547272000000     0.768164650000     0.504899070000    -0.175776   
O2       O      0.618332100000     0.690106360000     0.538650170000    -0.152384   
O3       O      0.634721600000     0.707851010000     0.556521210000    -0.160387   
N1       N      0.589652410000     0.743767760000     0.441714730000    -0.291365   
N2       N      0.631862320000     0.675898830000     0.475225940000    -0.291758   
N3       N      0.563182820000     0.705159630000     0.519747640000    -0.280484   
N5       N      0.620645750000     0.740811190000     0.484101490000    -0.276216   
N6       N      0.627470880000     0.710044660000     0.535963510000    -0.0335081  
N7       N      0.639322010000     0.759100460000     0.501084980000    -0.281796   
N8       N      0.690484700000     0.734486930000     0.536659160000    -0.301839   
N9       N      0.618555720000     0.764970260000     0.574392260000    -0.284812   
N11      N      0.653876520000     0.807175790000     0.505378830000    -0.292387   
N12      N      0.635073270000     0.861248710000     0.483741670000    -0.299339   
N13      N      0.573935400000     0.911218830000     0.457450840000    -0.305558   
N14      N      0.571565210000     0.897720880000     0.526848080000    -0.299411   
N15      N      0.612674760000     0.939940240000     0.463831650000    -0.305313   
C2       C      0.609299350000     0.747151800000     0.410122550000     0.0547636  
C3       C      0.641413650000     0.735095120000     0.397984630000    -0.106924   
H3       H      0.654394530000     0.722008630000     0.411393910000     0.0407735  
C4       C      0.654068360000     0.742667490000     0.365768770000    -0.0206474  
H4       H      0.676600400000     0.734591200000     0.356005660000     0.0303483  
C6       C      0.630311370000     0.657818270000     0.463112010000     0.0497288  
C7       C      0.607062850000     0.661926560000     0.453636750000    -0.102061   
H7       H      0.588506920000     0.680493230000     0.453300920000     0.0406112  
C8       C      0.611628310000     0.637968060000     0.444569300000    -0.0219216  
H8       H      0.595689170000     0.640303790000     0.438308430000     0.0308114  
C9       C      0.561640910000     0.674243390000     0.535963510000     0.00398767 
H9       H      0.576696790000     0.656107680000     0.529510740000     0.0184817  
C11      C      0.625390680000     0.768599670000     0.461121000000     0.00395032 
H11      H      0.621691180000     0.778302760000     0.441306930000     0.0107714  
C12      C      0.629518550000     0.736663140000     0.507129960000     0.16301    
C13      C      0.636422740000     0.780342270000     0.471147980000    -0.000292576
H13      H      0.641301540000     0.799693610000     0.459705710000     0.0137349  
C15      C      0.710720740000     0.738527560000     0.542991990000     0.0555808  
C16      C      0.708102920000     0.763096980000     0.549276840000    -0.107215   
H16      H      0.689304650000     0.781498240000     0.549708630000     0.0428616  
C17      C      0.733443550000     0.760565930000     0.555105920000    -0.0225038  
H17      H      0.732006580000     0.777612230000     0.558991980000     0.0311895  
C20      C      0.629231230000     0.834651790000     0.507489780000     0.0798455  
H20      H      0.609294340000     0.835111590000     0.524497260000    -0.0415472  
C21      C      0.677330250000     0.817344150000     0.476977060000     0.0417544  
C26      C      0.665952510000     0.850653300000     0.463759680000     0.045917   
C28      C      0.560375030000     0.892119170000     0.459249940000     0.0488715  
C29      C      0.563993040000     0.860652150000     0.475489810000    -0.102733   
H29      H      0.577409390000     0.847394340000     0.488395340000     0.0488139  
C30      C      0.547085440000     0.849192930000     0.472347380000    -0.0204962  
H30      H      0.548502610000     0.827295340000     0.483693700000     0.060402   
C32      C      0.579030800000     0.891152870000     0.552251350000     0.0232842  
C36      C      0.625967030000     0.957060010000     0.432623280000     0.0210831  
Zn1      Zn+2   0.200601960000     0.481725090000     0.717216710000     1.18834    
Zn2      Zn+2   0.055145250000     0.530802560000     0.764640960000     1.19019    
Zn3      Zn+2   0.016451220000     0.481471790000     0.902523890000     1.17696    
O1       O      0.179654750000     0.504907770000     0.768167190000    -0.175776   
O2       O      0.152911160000     0.538638820000     0.690110290000    -0.152384   
O3       O      0.100909000000     0.556536530000     0.707861400000    -0.160387   
N1       N      0.224862440000     0.441708560000     0.743771410000    -0.291365   
N2       N      0.217009590000     0.475238170000     0.675885420000    -0.291758   
N3       N      0.211934310000     0.519739050000     0.705150760000    -0.280484   
N5       N      0.154443800000     0.484079500000     0.740820890000    -0.276216   
N6       N      0.126522980000     0.535951960000     0.710044310000    -0.0335081  
N7       N      0.100481390000     0.501100200000     0.759099730000    -0.281796   
N8       N      0.038379110000     0.536669550000     0.734488060000    -0.301839   
N9       N      0.042097850000     0.574384900000     0.764976790000    -0.284812   
N11      N      0.033555700000     0.505377470000     0.807195640000    -0.292387   
N12      N      0.019935370000     0.483743920000     0.861240570000    -0.299339   
N13      N      0.057387180000     0.457445820000     0.911231520000    -0.305558   
N14      N      0.003863380000     0.526863730000     0.897702300000    -0.299411   
N15      N      0.983530270000     0.463841570000     0.939945140000    -0.305313   
C2       C      0.233432350000     0.410139870000     0.747153720000     0.0547636  
C3       C      0.225495010000     0.397983350000     0.735111750000    -0.106924   
H3       H      0.212203320000     0.411403600000     0.721990320000     0.0407735  
C4       C      0.237502350000     0.365761700000     0.742691950000    -0.0206474  
H4       H      0.232795810000     0.355994880000     0.734608000000     0.0303483  
C6       C      0.248767400000     0.463121060000     0.657822470000     0.0497288  
C7       C      0.277372090000     0.453634560000     0.661924410000    -0.102061   
H7       H      0.277694910000     0.453303230000     0.680491110000     0.0406112  
C8       C      0.305833880000     0.444570030000     0.637960420000    -0.0219216  
H8       H      0.325699820000     0.438290720000     0.640311240000     0.0308114  
C9       C      0.228142950000     0.535963310000     0.674254240000     0.00398767 
H9       H      0.237707210000     0.529509580000     0.656095330000     0.0184817  
C11      C      0.144876880000     0.461137410000     0.768598970000     0.00395032 
H11      H      0.158701590000     0.441306820000     0.778290120000     0.0107714  
C12      C      0.126692300000     0.507106410000     0.736670970000     0.16301    
C13      C      0.112115120000     0.471136260000     0.780329100000    -0.000292576
H13      H      0.099289210000     0.459699960000     0.799711390000     0.0137349  
C15      C      0.007760010000     0.542993080000     0.738518040000     0.0555808  
C16      C      0.979533480000     0.549279480000     0.763081740000    -0.107215   
H16      H      0.979494970000     0.549697220000     0.781504510000     0.0428616  
C17      C      0.950895640000     0.555094600000     0.760563000000    -0.0225038  
H17      H      0.931394680000     0.559006660000     0.777594470000     0.0311895  
C20      C      0.028620690000     0.507484870000     0.834661880000     0.0798455  
H20      H      0.031097210000     0.524506560000     0.835093660000    -0.0415472  
C21      C      0.028343060000     0.476981780000     0.817342560000     0.0417544  
C26      C      0.019651020000     0.463749430000     0.850661870000     0.045917   
C28      C      0.088254850000     0.459250180000     0.892113100000     0.0488715  
C29      C      0.099849620000     0.475500030000     0.860664860000    -0.102733   
H29      H      0.086790680000     0.488402850000     0.847399500000     0.0488139  
C30      C      0.131374320000     0.472333740000     0.849198600000    -0.0204962  
H30      H      0.140497670000     0.483704980000     0.827297570000     0.060402   
C32      C      0.977549260000     0.552250740000     0.891153580000     0.0232842  
C36      C      0.984356220000     0.432629480000     0.957048570000     0.0210831  
Zn1      Zn+2   0.481729890000     0.200609340000     0.600443210000     1.18834    
Zn2      Zn+2   0.530821200000     0.055151650000     0.649402690000     1.19019    
Zn3      Zn+2   0.481474760000     0.016448380000     0.599555660000     1.17696    
O1       O      0.504907210000     0.179662950000     0.547261850000    -0.175776   
O2       O      0.538640420000     0.152917640000     0.618338250000    -0.152384   
O3       O      0.556537450000     0.100920470000     0.634698050000    -0.160387   
N1       N      0.441715740000     0.224878640000     0.589648620000    -0.291365   
N2       N      0.475233230000     0.217002490000     0.631867470000    -0.291758   
N3       N      0.519732810000     0.211918930000     0.563189870000    -0.280484   
N5       N      0.484091510000     0.154456870000     0.620641090000    -0.276216   
N6       N      0.535962660000     0.126531370000     0.627477670000    -0.0335081  
N7       N      0.501095570000     0.100493420000     0.639303740000    -0.281796   
N8       N      0.536680890000     0.038364100000     0.690470110000    -0.301839   
N9       N      0.574377420000     0.042094700000     0.618554140000    -0.284812   
N11      N      0.505374000000     0.033581310000     0.653864450000    -0.292387   
N12      N      0.483756900000     0.019917400000     0.635081860000    -0.299339   
N13      N      0.457466960000     0.057374340000     0.573936490000    -0.305558   
N14      N      0.526853380000     0.003864710000     0.571561680000    -0.299411   
N15      N      0.463839570000     0.983548610000     0.612677080000    -0.305313   
C2       C      0.410122850000     0.233437460000     0.609294780000     0.0547636  
C3       C      0.397966570000     0.225512610000     0.641414690000    -0.106924   
H3       H      0.411409410000     0.212208190000     0.654392190000     0.0407735  
C4       C      0.365756640000     0.237491840000     0.654056350000    -0.0206474  
H4       H      0.356004280000     0.232802610000     0.676605060000     0.0303483  
C6       C      0.463113650000     0.248755050000     0.630308250000     0.0497288  
C7       C      0.453647650000     0.277377820000     0.607063890000    -0.102061   
H7       H      0.453305240000     0.277709150000     0.588497200000     0.0406112  
C8       C      0.444568390000     0.305824900000     0.611621610000    -0.0219216  
H8       H      0.438305990000     0.325699000000     0.595693590000     0.0308114  
C9       C      0.535975130000     0.228156850000     0.561630650000     0.00398767 
H9       H      0.529507920000     0.237700120000     0.576695110000     0.0184817  
C11      C      0.461136040000     0.144890180000     0.625390710000     0.00395032 
H11      H      0.441312220000     0.158696110000     0.621696560000     0.0107714  
C12      C      0.507119370000     0.126711120000     0.629516650000     0.16301    
C13      C      0.471129960000     0.112105120000     0.636425190000    -0.000292576
H13      H      0.459698260000     0.099309580000     0.641294750000     0.0137349  
C15      C      0.542998250000     0.007755510000     0.710715970000     0.0555808  
C16      C      0.549262910000     0.979535720000     0.708101280000    -0.107215   
H16      H      0.549696690000     0.979494690000     0.689294700000     0.0428616  
C17      C      0.555108640000     0.950895780000     0.733432590000    -0.0225038  
H17      H      0.558992480000     0.931405530000     0.731993310000     0.0311895  
C20      C      0.507475380000     0.028630630000     0.629228790000     0.0798455  
H20      H      0.524516540000     0.031091330000     0.609294780000    -0.0415472  
C21      C      0.476984080000     0.028331460000     0.677348690000     0.0417544  
C26      C      0.463755920000     0.019645480000     0.665954390000     0.045917   
C28      C      0.459238920000     0.088262430000     0.560383280000     0.0488715  
C29      C      0.475495040000     0.099863740000     0.563981480000    -0.102733   
H29      H      0.488405860000     0.086799860000     0.577390760000     0.0488139  
C30      C      0.472348070000     0.131373720000     0.547069950000    -0.0204962  
H30      H      0.483691000000     0.140505800000     0.548509230000     0.060402   
C32      C      0.552245920000     0.977548150000     0.579045930000     0.0232842  
C36      C      0.432617070000     0.984365760000     0.625966430000     0.0210831  
Zn1      Zn+2   0.200613740000     0.717206010000     0.600443210000     1.18834    
Zn2      Zn+2   0.055151930000     0.764640930000     0.649402690000     1.19019    
Zn3      Zn+2   0.016441710000     0.902524070000     0.599555660000     1.17696    
O1       O      0.179644490000     0.768178780000     0.547261850000    -0.175776   
O2       O      0.152926840000     0.690094950000     0.618338250000    -0.152384   
O3       O      0.100910320000     0.707845790000     0.634698050000    -0.160387   
N1       N      0.224875070000     0.743759530000     0.589648620000    -0.291365   
N2       N      0.217021030000     0.675882910000     0.631867470000    -0.291758   
N3       N      0.211909100000     0.705153180000     0.563189870000    -0.280484   
N5       N      0.154438530000     0.740824170000     0.620641090000    -0.276216   
N6       N      0.126510910000     0.710049040000     0.627477670000    -0.0335081  
N7       N      0.100489290000     0.759119130000     0.639303740000    -0.281796   
N8       N      0.038374280000     0.734487280000     0.690470110000    -0.301839   
N9       N      0.042088810000     0.764972700000     0.618554140000    -0.284812   
N11      N      0.033567360000     0.807187200000     0.653864450000    -0.292387   
N12      N      0.019929890000     0.861235860000     0.635081860000    -0.299339   
N13      N      0.057376050000     0.911222110000     0.573936490000    -0.305558   
N14      N      0.003872720000     0.897720340000     0.571561680000    -0.299411   
N15      N      0.983539890000     0.939944790000     0.612677080000    -0.305313   
C2       C      0.233437880000     0.747139280000     0.609294780000     0.0547636  
C3       C      0.225494130000     0.735098290000     0.641414690000    -0.106924   
H3       H      0.212198100000     0.721997420000     0.654392190000     0.0407735  
C4       C      0.237490160000     0.742690000000     0.654056350000    -0.0206474  
H4       H      0.232802820000     0.734608360000     0.676605060000     0.0303483  
C6       C      0.248752830000     0.657812230000     0.630308250000     0.0497288  
C7       C      0.277378830000     0.661919160000     0.607063890000    -0.102061   
H7       H      0.277703890000     0.680501670000     0.588497200000     0.0406112  
C8       C      0.305840660000     0.637964760000     0.611621610000    -0.0219216  
H8       H      0.325695290000     0.640311390000     0.595693590000     0.0308114  
C9       C      0.228135710000     0.674259170000     0.561630650000     0.00398767 
H9       H      0.237694920000     0.656097740000     0.576695110000     0.0184817  
C11      C      0.144895520000     0.768596650000     0.625390710000     0.00395032 
H11      H      0.158691260000     0.778309060000     0.621696560000     0.0107714  
C12      C      0.126695750000     0.736667000000     0.629516650000     0.16301    
C13      C      0.112097660000     0.780342660000     0.636425190000    -0.000292576
H13      H      0.099295090000     0.799707200000     0.641294750000     0.0137349  
C15      C      0.007762020000     0.738526530000     0.710715970000     0.0555808  
C16      C      0.979535230000     0.763099760000     0.708101280000    -0.107215   
H16      H      0.979507950000     0.781490840000     0.689294700000     0.0428616  
C17      C      0.950904290000     0.760558790000     0.733432590000    -0.0225038  
H17      H      0.931413650000     0.777593520000     0.731993310000     0.0311895  
C20      C      0.028619290000     0.834668000000     0.629228790000     0.0798455  
H20      H      0.031107230000     0.835093240000     0.609294780000    -0.0415472  
C21      C      0.028344360000     0.817338910000     0.677348690000     0.0417544  
C26      C      0.019637860000     0.850651000000     0.665954390000     0.045917   
C28      C      0.088251860000     0.892128650000     0.560383280000     0.0488715  
C29      C      0.099851870000     0.860668920000     0.563981480000    -0.102733   
H29      H      0.086795350000     0.847401510000     0.577390760000     0.0488139  
C30      C      0.131371630000     0.849208340000     0.547069950000    -0.0204962  
H30      H      0.140495490000     0.827288530000     0.548509230000     0.060402   
C32      C      0.977567590000     0.891154700000     0.579045930000     0.0232842  
C36      C      0.984354980000     0.957068140000     0.625966430000     0.0210831  
Zn1      Zn+2   0.481730910000     0.600436930000     0.717216710000     1.18834    
Zn2      Zn+2   0.530801200000     0.649401330000     0.764640960000     1.19019    
Zn3      Zn+2   0.481477370000     0.599550380000     0.902523890000     1.17696    
O1       O      0.504913830000     0.547267700000     0.768167190000    -0.175776   
O2       O      0.538628530000     0.618337910000     0.690110290000    -0.152384   
O3       O      0.556534280000     0.634697720000     0.707861400000    -0.160387   
N1       N      0.441711040000     0.589640380000     0.743771410000    -0.291365   
N2       N      0.475238140000     0.631877200000     0.675885420000    -0.291758   
N3       N      0.519747800000     0.563184560000     0.705150760000    -0.280484   
N5       N      0.484096750000     0.620635440000     0.740820890000    -0.276216   
N6       N      0.535960030000     0.627479270000     0.710044310000    -0.0335081  
N7       N      0.501091940000     0.639307110000     0.759099730000    -0.281796   
N8       N      0.536658290000     0.690481560000     0.734488060000    -0.301839   
N9       N      0.574378390000     0.618554120000     0.764976790000    -0.284812   
N11      N      0.505367730000     0.653874710000     0.807195640000    -0.292387   
N12      N      0.483752970000     0.635068170000     0.861240570000    -0.299339   
N13      N      0.457454330000     0.573941290000     0.911231520000    -0.305558   
N14      N      0.526843340000     0.571575740000     0.897702300000    -0.299411   
N15      N      0.463841490000     0.612678040000     0.939945140000    -0.305313   
C2       C      0.410115750000     0.609297130000     0.747153720000     0.0547636  
C3       C      0.397978130000     0.641422920000     0.735111750000    -0.106924   
H3       H      0.411401290000     0.654413460000     0.721990320000     0.0407735  
C4       C      0.365762290000     0.654048960000     0.742691950000    -0.0206474  
H4       H      0.356001870000     0.676600540000     0.734608000000     0.0303483  
C6       C      0.463122190000     0.630299170000     0.657822470000     0.0497288  
C7       C      0.453632470000     0.607062100000     0.661924410000    -0.102061   
H7       H      0.453296110000     0.588502200000     0.680491110000     0.0406112  
C8       C      0.444564490000     0.611635070000     0.637960420000    -0.0219216  
H8       H      0.438293340000     0.595698690000     0.640311240000     0.0308114  
C9       C      0.535972060000     0.561632570000     0.674254240000     0.00398767 
H9       H      0.529502400000     0.576709360000     0.656095330000     0.0184817  
C11      C      0.461127960000     0.625398050000     0.768598970000     0.00395032 
H11      H      0.441310580000     0.621692730000     0.778290120000     0.0107714  
C12      C      0.507109390000     0.629527290000     0.736670970000     0.16301    
C13      C      0.471142640000     0.636414630000     0.780329100000    -0.000292576
H13      H      0.459690750000     0.641307140000     0.799711390000     0.0137349  
C15      C      0.542996790000     0.710713990000     0.738518040000     0.0555808  
C16      C      0.549271170000     0.708112260000     0.763081740000    -0.107215   
H16      H      0.549697780000     0.689306330000     0.781504510000     0.0428616  
C17      C      0.555099910000     0.733445060000     0.760563000000    -0.0225038  
H17      H      0.559001050000     0.731997120000     0.777594470000     0.0311895  
C20      C      0.507472510000     0.629249890000     0.834661880000     0.0798455  
H20      H      0.524500880000     0.609294270000     0.835093660000    -0.0415472  
C21      C      0.476987380000     0.677337700000     0.817342560000     0.0417544  
C26      C      0.463755960000     0.665937250000     0.850661870000     0.045917   
C28      C      0.459237050000     0.560389320000     0.892113100000     0.0488715  
C29      C      0.475499500000     0.563974160000     0.860664860000    -0.102733   
H29      H      0.488406270000     0.577397150000     0.847399500000     0.0488139  
C30      C      0.472346050000     0.547079910000     0.849198600000    -0.0204962  
H30      H      0.483702890000     0.548500070000     0.827297570000     0.060402   
C32      C      0.552233820000     0.579050810000     0.891153580000     0.0232842  
C36      C      0.432620160000     0.625974410000     0.957048570000     0.0210831  
Zn1      Zn+2   0.717209410000     0.200603360000     0.481726680000     1.18834    
Zn2      Zn+2   0.764632060000     0.055150930000     0.530806100000     1.19019    
Zn3      Zn+2   0.902525040000     0.016460660000     0.481462810000     1.17696    
O1       O      0.768179940000     0.179648820000     0.504899070000    -0.175776   
O2       O      0.690111280000     0.152906430000     0.538650170000    -0.152384   
O3       O      0.707862960000     0.100903060000     0.556521210000    -0.160387   
N1       N      0.743770090000     0.224864250000     0.441714730000    -0.291365   
N2       N      0.675880860000     0.217018410000     0.475225940000    -0.291758   
N3       N      0.705151380000     0.211925380000     0.519747640000    -0.280484   
N5       N      0.740805740000     0.154443880000     0.484101490000    -0.276216   
N6       N      0.710030510000     0.126526980000     0.535963510000    -0.0335081  
N7       N      0.759110970000     0.100497370000     0.501084980000    -0.281796   
N8       N      0.734491580000     0.038363750000     0.536659160000    -0.301839   
N9       N      0.764958860000     0.042092250000     0.574392260000    -0.284812   
N11      N      0.807193490000     0.033569900000     0.505378830000    -0.292387   
N12      N      0.861262050000     0.019930250000     0.483741670000    -0.299339   
N13      N      0.911221950000     0.057393680000     0.457450840000    -0.305558   
N14      N      0.897705510000     0.003865250000     0.526848080000    -0.299411   
N15      N      0.939936440000     0.983544060000     0.463831650000    -0.305313   
C2       C      0.747156380000     0.233427370000     0.410122550000     0.0547636  
C3       C      0.735091180000     0.225509440000     0.397984630000    -0.106924   
H3       H      0.721998520000     0.212196780000     0.411393910000     0.0407735  
C4       C      0.742681250000     0.237491940000     0.365768770000    -0.0206474  
H4       H      0.734588410000     0.232808060000     0.356005660000     0.0303483  
C6       C      0.657820730000     0.248761090000     0.463112010000     0.0497288  
C7       C      0.661917390000     0.277385230000     0.453636750000    -0.102061   
H7       H      0.680495190000     0.277700710000     0.453300920000     0.0406112  
C8       C      0.637970950000     0.305828190000     0.444569300000    -0.0219216  
H8       H      0.640296910000     0.325691390000     0.438308430000     0.0308114  
C9       C      0.674265600000     0.228141060000     0.535963510000     0.00398767 
H9       H      0.656109780000     0.237687450000     0.529510740000     0.0184817  
C11      C      0.768587950000     0.144893200000     0.461121000000     0.00395032 
H11      H      0.778295130000     0.158689810000     0.441306930000     0.0107714  
C12      C      0.736657230000     0.126707260000     0.507129960000     0.16301    
C13      C      0.780340830000     0.112104730000     0.471147980000    -0.000292576
H13      H      0.799693610000     0.099296000000     0.459705710000     0.0137349  
C15      C      0.738520120000     0.007756540000     0.542991990000     0.0555808  
C16      C      0.763076380000     0.979532930000     0.549276840000    -0.107215   
H16      H      0.781502300000     0.979502090000     0.549708630000     0.0428616  
C17      C      0.760551120000     0.950902920000     0.555105920000    -0.0225038  
H17      H      0.777603390000     0.931401620000     0.558991980000     0.0311895  
C20      C      0.834665270000     0.028614430000     0.507489780000     0.0798455  
H20      H      0.835098690000     0.031109670000     0.524497260000    -0.0415472  
C21      C      0.817351700000     0.028336700000     0.476977060000     0.0417544  
C26      C      0.850652600000     0.019647780000     0.463759680000     0.045917   
C28      C      0.892111530000     0.088252960000     0.459249940000     0.0488715  
C29      C      0.860653720000     0.099869580000     0.475489810000    -0.102733   
H29      H      0.847401260000     0.086792700000     0.488395340000     0.0488139  
C30      C      0.849191730000     0.131380930000     0.472347380000    -0.0204962  
H30      H      0.827299000000     0.140512610000     0.483693700000     0.060402   
C32      C      0.891165220000     0.977546320000     0.552251350000     0.0232842  
C36      C      0.957053280000     0.984357630000     0.432623280000     0.0210831  
Zn1      Zn+2   0.600451930000     0.481727940000     0.200611500000     1.18834    
Zn2      Zn+2   0.649409490000     0.530803660000     0.055148370000     1.19019    
Zn3      Zn+2   0.599550560000     0.481461730000     0.016455760000     1.17696    
O1       O      0.547264410000     0.504909550000     0.179646010000    -0.175776   
O2       O      0.618339610000     0.538649560000     0.152923390000    -0.152384   
O3       O      0.634698440000     0.556527660000     0.100917450000    -0.160387   
N1       N      0.589649790000     0.441710070000     0.224863360000    -0.291365   
N2       N      0.631874240000     0.475218340000     0.217019290000    -0.291758   
N3       N      0.563186410000     0.519733740000     0.211909850000    -0.280484   
N5       N      0.620645670000     0.484085360000     0.154458620000    -0.276216   
N6       N      0.627481920000     0.535964170000     0.126512620000    -0.0335081  
N7       N      0.639310480000     0.501081240000     0.100485660000    -0.281796   
N8       N      0.690470540000     0.536664260000     0.038380770000    -0.301839   
N9       N      0.618549310000     0.574392400000     0.042098910000    -0.284812   
N11      N      0.653885700000     0.505365040000     0.033559190000    -0.292387   
N12      N      0.635080670000     0.483739960000     0.019934010000    -0.299339   
N13      N      0.573931050000     0.457462400000     0.057379260000    -0.305558   
N14      N      0.571581120000     0.526843520000     0.003862070000    -0.299411   
N15      N      0.612697780000     0.463832380000     0.983531310000    -0.305313   
C2       C      0.609284670000     0.410133070000     0.233427070000     0.0547636  
C3       C      0.641411940000     0.397980820000     0.225511030000    -0.106924   
H3       H      0.654404770000     0.411397190000     0.212197700000     0.0407735  
C4       C      0.654052990000     0.365757950000     0.237505020000    -0.0206474  
H4       H      0.676601870000     0.355994510000     0.232803380000     0.0303483  
C6       C      0.630298930000     0.463124360000     0.248755390000     0.0497288  
C7       C      0.607054680000     0.453652980000     0.277373050000    -0.102061   
H7       H      0.588499500000     0.453292260000     0.277708880000     0.0406112  
C8       C      0.611626570000     0.444576820000     0.305822800000    -0.0219216  
H8       H      0.595701150000     0.438287390000     0.325708840000     0.0308114  
C9       C      0.561640900000     0.535964040000     0.228149710000     0.00398767 
H9       H      0.576707180000     0.529502300000     0.237696930000     0.0184817  
C11      C      0.625391540000     0.461131570000     0.144887420000     0.00395032 
H11      H      0.621697710000     0.441305250000     0.158704500000     0.0107714  
C12      C      0.629513020000     0.507109930000     0.126704530000     0.16301    
C13      C      0.636433140000     0.471134830000     0.112095850000    -0.000292576
H13      H      0.641295930000     0.459701130000     0.099310250000     0.0137349  
C15      C      0.710723740000     0.543007790000     0.007748120000     0.0555808  
C16      C      0.708101940000     0.549276940000     0.979525310000    -0.107215   
H16      H      0.689299590000     0.549692020000     0.979501320000     0.0428616  
C17      C      0.733440990000     0.555107120000     0.950907650000    -0.0225038  
H17      H      0.731997510000     0.559007020000     0.931405420000     0.0311895  
C20      C      0.629245880000     0.507487160000     0.028617660000     0.0798455  
H20      H      0.609295890000     0.524507660000     0.031088430000    -0.0415472  
C21      C      0.677350410000     0.476983540000     0.028329810000     0.0417544  
C26      C      0.665959850000     0.463752820000     0.019646160000     0.045917   
C28      C      0.560382930000     0.459248540000     0.088251790000     0.0488715  
C29      C      0.563978280000     0.475506800000     0.099861970000    -0.102733   
H29      H      0.577399790000     0.488413500000     0.086788520000     0.0488139  
C30      C      0.547073960000     0.472350290000     0.131382180000    -0.0204962  
H30      H      0.548497300000     0.483695640000     0.140497620000     0.060402   
C32      C      0.579040990000     0.552239450000     0.977558300000     0.0232842  
C36      C      0.625948300000     0.432613710000     0.984370890000     0.0210831  
Zn1      Zn+2   0.600441820000     0.200607120000     0.717216710000     1.18834    
Zn2      Zn+2   0.649403990000     0.055141010000     0.764640960000     1.19019    
Zn3      Zn+2   0.599547210000     0.016462410000     0.902523890000     1.17696    
O1       O      0.547275220000     0.179643200000     0.768167190000    -0.175776   
O2       O      0.618330100000     0.152921450000     0.690110290000    -0.152384   
O3       O      0.634695000000     0.100912820000     0.707861400000    -0.160387   
N1       N      0.589646510000     0.224865510000     0.743771410000    -0.291365   
N2       N      0.631866540000     0.217007690000     0.675885420000    -0.291758   
N3       N      0.563186400000     0.211934100000     0.705150760000    -0.280484   
N5       N      0.620649540000     0.154450030000     0.740820890000    -0.276216   
N6       N      0.627483670000     0.126510310000     0.710044310000    -0.0335081  
N7       N      0.639307030000     0.100501440000     0.759099730000    -0.281796   
N8       N      0.690474210000     0.038369290000     0.734488060000    -0.301839   
N9       N      0.618546650000     0.042092660000     0.764976790000    -0.284812   
N11      N      0.653880620000     0.033560650000     0.807195640000    -0.292387   
N12      N      0.635082080000     0.019933200000     0.861240570000    -0.299339   
N13      N      0.573937950000     0.057367230000     0.911231520000    -0.305558   
N14      N      0.571571080000     0.003866710000     0.897702300000    -0.299411   
N15      N      0.612688270000     0.983536650000     0.939945140000    -0.305313   
C2       C      0.609297860000     0.233417760000     0.747153720000     0.0547636  
C3       C      0.641414800000     0.225490450000     0.735111750000    -0.106924   
H3       H      0.654404740000     0.212201100000     0.721990320000     0.0407735  
C4       C      0.654043080000     0.237505860000     0.742691950000    -0.0206474  
H4       H      0.676594000000     0.232805050000     0.734608000000     0.0303483  
C6       C      0.630287630000     0.248765780000     0.657822470000     0.0497288  
C7       C      0.607051120000     0.277387390000     0.661924410000    -0.102061   
H7       H      0.588497970000     0.277711930000     0.680491110000     0.0406112  
C8       C      0.611621310000     0.305842950000     0.637960420000    -0.0219216  
H8       H      0.595706580000     0.325685220000     0.640311240000     0.0308114  
C9       C      0.561630440000     0.228158360000     0.674254240000     0.00398767 
H9       H      0.576714320000     0.237694200000     0.656095330000     0.0184817  
C11      C      0.625384560000     0.144896660000     0.768598970000     0.00395032 
H11      H      0.621708700000     0.158696190000     0.778290120000     0.0107714  
C12      C      0.629507440000     0.126703810000     0.736670970000     0.16301    
C13      C      0.636424130000     0.112105870000     0.780329100000    -0.000292576
H13      H      0.641308340000     0.099289990000     0.799711390000     0.0137349  
C15      C      0.710716560000     0.007760750000     0.738518040000     0.0555808  
C16      C      0.708118790000     0.979527930000     0.763081740000    -0.107215   
H16      H      0.689307910000     0.979493350000     0.781504510000     0.0428616  
C17      C      0.733446630000     0.950898750000     0.760563000000    -0.0225038  
H17      H      0.731995390000     0.931403160000     0.777594470000     0.0311895  
C20      C      0.629244600000     0.028611830000     0.834661880000     0.0798455  
H20      H      0.609299650000     0.031091370000     0.835093660000    -0.0415472  
C21      C      0.677326680000     0.028346450000     0.817342560000     0.0417544  
C26      C      0.665942140000     0.019637320000     0.850661870000     0.045917   
C28      C      0.560394670000     0.088255880000     0.892113100000     0.0488715  
C29      C      0.563966120000     0.099869430000     0.860664860000    -0.102733   
H29      H      0.577403230000     0.086808980000     0.847399500000     0.0488139  
C30      C      0.547092020000     0.131373610000     0.849198600000    -0.0204962  
H30      H      0.548501540000     0.140505850000     0.827297570000     0.060402   
C32      C      0.579037620000     0.977568890000     0.891153580000     0.0232842  
C36      C      0.625968920000     0.984371550000     0.957048570000     0.0210831  
Zn1      Zn+2   0.717224150000     0.481727300000     0.600443210000     1.18834    
Zn2      Zn+2   0.764623860000     0.530813200000     0.649402690000     1.19019    
Zn3      Zn+2   0.902538860000     0.481457750000     0.599555660000     1.17696    
O1       O      0.768186120000     0.504904900000     0.547261850000    -0.175776   
O2       O      0.690105480000     0.538635020000     0.618338250000    -0.152384   
O3       O      0.707853860000     0.556544170000     0.634698050000    -0.160387   
N1       N      0.743760250000     0.441721680000     0.589648620000    -0.291365   
N2       N      0.675889260000     0.475232980000     0.631867470000    -0.291758   
N3       N      0.705148320000     0.519746490000     0.563189870000    -0.280484   
N5       N      0.740808960000     0.484086340000     0.620641090000    -0.276216   
N6       N      0.710048440000     0.535950400000     0.627477670000    -0.0335081  
N7       N      0.759111080000     0.501092180000     0.639303740000    -0.281796   
N8       N      0.734485710000     0.536664360000     0.690470110000    -0.301839   
N9       N      0.764959720000     0.574386930000     0.618554140000    -0.284812   
N11      N      0.807193870000     0.505375510000     0.653864450000    -0.292387   
N12      N      0.861242340000     0.483750740000     0.635081860000    -0.299339   
N13      N      0.911231490000     0.457452930000     0.573936490000    -0.305558   
N14      N      0.897711900000     0.526861740000     0.571561680000    -0.299411   
N15      N      0.939948620000     0.463830920000     0.612677080000    -0.305313   
C2       C      0.747144170000     0.410136960000     0.609294780000     0.0547636  
C3       C      0.735104700000     0.397982890000     0.641414690000    -0.106924   
H3       H      0.721999990000     0.411410690000     0.654392190000     0.0407735  
C4       C      0.742676940000     0.365770280000     0.654056350000    -0.0206474  
H4       H      0.734607110000     0.355992440000     0.676605060000     0.0303483  
C6       C      0.657816670000     0.463110330000     0.630308250000     0.0497288  
C7       C      0.661909300000     0.453647610000     0.607063890000    -0.102061   
H7       H      0.680493350000     0.453300460000     0.588497200000     0.0406112  
C8       C      0.637980330000     0.444574590000     0.611621610000    -0.0219216  
H8       H      0.640304810000     0.438304500000     0.595693590000     0.0308114  
C9       C      0.674258190000     0.535961800000     0.561630650000     0.00398767 
H9       H      0.656113040000     0.529492880000     0.576695110000     0.0184817  
C11      C      0.768597000000     0.461130930000     0.625390710000     0.00395032 
H11      H      0.778299630000     0.441306740000     0.621696560000     0.0107714  
C12      C      0.736667920000     0.507113710000     0.629516650000     0.16301    
C13      C      0.780346880000     0.471135510000     0.636425190000    -0.000292576
H13      H      0.799711570000     0.459696940000     0.641294750000     0.0137349  
C15      C      0.738523440000     0.543010460000     0.710715970000     0.0555808  
C16      C      0.763105760000     0.549264650000     0.708101280000    -0.107215   
H16      H      0.781497560000     0.549698560000     0.689294700000     0.0428616  
C17      C      0.760570960000     0.555091630000     0.733432590000    -0.0225038  
H17      H      0.777605730000     0.559009040000     0.731993310000     0.0311895  
C20      C      0.834656640000     0.507481060000     0.629228790000     0.0798455  
H20      H      0.835092440000     0.524506510000     0.609294780000    -0.0415472  
C21      C      0.817333860000     0.476966790000     0.677348690000     0.0417544  
C26      C      0.850651500000     0.463757590000     0.665954390000     0.045917   
C28      C      0.892125630000     0.459234120000     0.560383280000     0.0488715  
C29      C      0.860671290000     0.475494340000     0.563981480000    -0.102733   
H29      H      0.847399430000     0.488393730000     0.577390760000     0.0488139  
C30      C      0.849201750000     0.472333850000     0.547069950000    -0.0204962  
H30      H      0.827284380000     0.483704920000     0.548509230000     0.060402   
C32      C      0.891157040000     0.552230010000     0.579045930000     0.0232842  
C36      C      0.957055390000     0.432623690000     0.625966430000     0.0210831  
Zn1      Zn+2   0.481733270000     0.717206640000     0.200611500000     1.18834    
Zn2      Zn+2   0.530811220000     0.764631390000     0.055148370000     1.19019    
Zn3      Zn+2   0.481463820000     0.902528050000     0.016455760000     1.17696    
O1       O      0.504912260000     0.768160810000     0.179646010000    -0.175776   
O2       O      0.538633660000     0.690109490000     0.152923390000    -0.152384   
O3       O      0.556529290000     0.707851900000     0.100917450000    -0.160387   
N1       N      0.441714160000     0.743770540000     0.224863360000    -0.291365   
N2       N      0.475227910000     0.675890880000     0.217019290000    -0.291758   
N3       N      0.519750400000     0.705163040000     0.211909850000    -0.280484   
N5       N      0.484081480000     0.740800570000     0.154458620000    -0.276216   
N6       N      0.535958690000     0.710040200000     0.126512620000    -0.0335081  
N7       N      0.501091540000     0.759108190000     0.100485660000    -0.281796   
N8       N      0.536659220000     0.734487180000     0.038380770000    -0.301839   
N9       N      0.574376170000     0.764978170000     0.042098910000    -0.284812   
N11      N      0.505377640000     0.807199350000     0.033559190000    -0.292387   
N12      N      0.483755850000     0.861247690000     0.019934010000    -0.299339   
N13      N      0.457464650000     0.911208960000     0.057379260000    -0.305558   
N14      N      0.526858400000     0.897702130000     0.003862070000    -0.299411   
N15      N      0.463835970000     0.939946250000     0.983531310000    -0.305313   
C2       C      0.410119950000     0.747158010000     0.233427070000     0.0547636  
C3       C      0.397976550000     0.735096230000     0.225511030000    -0.106924   
H3       H      0.411393510000     0.722006540000     0.212197700000     0.0407735  
C4       C      0.365762750000     0.742677670000     0.237505020000    -0.0206474  
H4       H      0.355999960000     0.734587810000     0.232803380000     0.0303483  
C6       C      0.463123510000     0.657826250000     0.248755390000     0.0497288  
C7       C      0.453640260000     0.661924530000     0.277373050000    -0.102061   
H7       H      0.453295410000     0.680493480000     0.277708880000     0.0406112  
C8       C      0.444578200000     0.637966990000     0.305822800000    -0.0219216  
H8       H      0.438289710000     0.640294280000     0.325708840000     0.0308114  
C9       C      0.535984680000     0.674238800000     0.228149710000     0.00398767 
H9       H      0.529504530000     0.656107160000     0.237696930000     0.0184817  
C11      C      0.461121360000     0.768597280000     0.144887420000     0.00395032 
H11      H      0.441288200000     0.778307570000     0.158704500000     0.0107714  
C12      C      0.507117380000     0.736663210000     0.126704530000     0.16301    
C13      C      0.471135550000     0.780341980000     0.112095850000    -0.000292576
H13      H      0.459707130000     0.799688780000     0.099310250000     0.0137349  
C15      C      0.543004130000     0.738523870000     0.007748120000     0.0555808  
C16      C      0.549272930000     0.763089430000     0.979525310000    -0.107215   
H16      H      0.549692950000     0.781506920000     0.979501320000     0.0428616  
C17      C      0.555096760000     0.760551660000     0.950907650000    -0.0225038  
H17      H      0.559011250000     0.777591500000     0.931405420000     0.0311895  
C20      C      0.507480060000     0.834651480000     0.028617660000     0.0798455  
H20      H      0.524512500000     0.835094390000     0.031088430000    -0.0415472  
C21      C      0.476993470000     0.817333050000     0.028329810000     0.0417544  
C26      C      0.463758160000     0.850646230000     0.019646160000     0.045917   
C28      C      0.459250380000     0.892120460000     0.088251790000     0.0488715  
C29      C      0.475502450000     0.860658770000     0.099861970000    -0.102733   
H29      H      0.488414610000     0.847398650000     0.086788520000     0.0488139  
C30      C      0.472345370000     0.849202160000     0.131382180000    -0.0204962  
H30      H      0.483693090000     0.827301860000     0.140497620000     0.060402   
C32      C      0.552243840000     0.891164140000     0.977558300000     0.0232842  
C36      C      0.432610410000     0.957058170000     0.984370890000     0.0210831  
Zn1      Zn+2   0.200615030000     0.600455790000     0.481726680000     1.18834    
Zn2      Zn+2   0.055155610000     0.649411240000     0.530806100000     1.19019    
Zn3      Zn+2   0.016444800000     0.599548640000     0.481462810000     1.17696    
O1       O      0.179659970000     0.547273320000     0.504899070000    -0.175776   
O2       O      0.152906130000     0.618345520000     0.538650170000    -0.152384   
O3       O      0.100905220000     0.634710580000     0.556521210000    -0.160387   
N1       N      0.224873760000     0.589639120000     0.441714730000    -0.291365   
N2       N      0.217010980000     0.631865300000     0.475225940000    -0.291758   
N3       N      0.211917850000     0.563175830000     0.519747640000    -0.280484   
N5       N      0.154446710000     0.620651910000     0.484101490000    -0.276216   
N6       N      0.126515190000     0.627473320000     0.535963510000    -0.0335081  
N7       N      0.100493030000     0.639303040000     0.501084980000    -0.281796   
N8       N      0.038375550000     0.690476020000     0.536659160000    -0.301839   
N9       N      0.042092840000     0.618553710000     0.574392260000    -0.284812   
N11      N      0.033562150000     0.653861330000     0.505378830000    -0.292387   
N12      N      0.019933990000     0.635065220000     0.483741670000    -0.299339   
N13      N      0.057391490000     0.573945120000     0.457450840000    -0.305558   
N14      N      0.003861300000     0.571574280000     0.526848080000    -0.299411   
N15      N      0.983542740000     0.612685460000     0.463831650000    -0.305313   
C2       C      0.233432710000     0.609284130000     0.410122550000     0.0547636  
C3       C      0.225490630000     0.641419290000     0.397984630000    -0.106924   
H3       H      0.212193130000     0.654409150000     0.411393910000     0.0407735  
C4       C      0.237492610000     0.654057660000     0.365768770000    -0.0206474  
H4       H      0.232785620000     0.676603550000     0.356005660000     0.0303483  
C6       C      0.248766880000     0.630294490000     0.463112010000     0.0497288  
C7       C      0.277382680000     0.607059930000     0.453636750000    -0.102061   
H7       H      0.277707950000     0.588490990000     0.453300920000     0.0406112  
C8       C      0.305842430000     0.611620310000     0.444569300000    -0.0219216  
H8       H      0.325685580000     0.595704860000     0.438308430000     0.0308114  
C9       C      0.228140970000     0.561637890000     0.535963510000     0.00398767 
H9       H      0.237701960000     0.576702600000     0.529510740000     0.0184817  
C11      C      0.144900050000     0.625394600000     0.461121000000     0.00395032 
H11      H      0.158686850000     0.621708970000     0.441306930000     0.0107714  
C12      C      0.126693950000     0.629508120000     0.507129960000     0.16301    
C13      C      0.112107710000     0.636413490000     0.471147980000    -0.000292576
H13      H      0.099310130000     0.641290540000     0.459705710000     0.0137349  
C15      C      0.007766830000     0.710732390000     0.542991990000     0.0555808  
C16      C      0.979518140000     0.708117270000     0.549276840000    -0.107215   
H16      H      0.979509190000     0.689292450000     0.549708630000     0.0428616  
C17      C      0.950893270000     0.733449240000     0.555105920000    -0.0225038  
H17      H      0.931403230000     0.731995580000     0.558991980000     0.0311895  
C20      C      0.028624700000     0.629229870000     0.507489780000     0.0798455  
H20      H      0.031109400000     0.609289950000     0.524497260000    -0.0415472  
C21      C      0.028340670000     0.677350570000     0.476977060000     0.0417544  
C26      C      0.019654480000     0.665947710000     0.463759680000     0.045917   
C28      C      0.088243590000     0.560386400000     0.459249940000     0.0488715  
C29      C      0.099874410000     0.563974320000     0.475489810000    -0.102733   
H29      H      0.086804990000     0.577403480000     0.488395340000     0.0488139  
C30      C      0.131375130000     0.547087230000     0.472347380000    -0.0204962  
H30      H      0.140504370000     0.548506830000     0.483693700000     0.060402   
C32      C      0.977569110000     0.579028240000     0.552251350000     0.0232842  
C36      C      0.984361590000     0.625960490000     0.432623280000     0.0210831  
Zn1      Zn+2   0.282802750000     0.399546640000     0.518260380000     1.18834    
Zn2      Zn+2   0.235378200000     0.350591180000     0.469180970000     1.19019    
Zn3      Zn+2   0.097461500000     0.400453790000     0.518524250000     1.17696    
O1       O      0.231837630000     0.452729100000     0.495087990000    -0.175776   
O2       O      0.309899070000     0.381648910000     0.461360880000    -0.152384   
O3       O      0.292142270000     0.365291850000     0.443465850000    -0.160387   
N1       N      0.256224870000     0.410355300000     0.558296320000    -0.291365   
N2       N      0.324107480000     0.368137120000     0.524761120000    -0.291758   
N3       N      0.294838580000     0.436818600000     0.480263410000    -0.280484   
N5       N      0.259197370000     0.379342510000     0.515909560000    -0.276216   
N6       N      0.289949290000     0.372521110000     0.464047540000    -0.0335081  
N7       N      0.240886310000     0.360699380000     0.498902080000    -0.281796   
N8       N      0.265515990000     0.309526400000     0.463327900000    -0.301839   
N9       N      0.235036070000     0.381440720000     0.425618790000    -0.284812   
N11      N      0.192799580000     0.346133090000     0.494632220000    -0.292387   
N12      N      0.138746140000     0.364937200000     0.516245390000    -0.299339   
N13      N      0.088792710000     0.426057300000     0.542536220000    -0.305558   
N14      N      0.102288910000     0.428428150000     0.473138980000    -0.299411   
N15      N      0.060057270000     0.387316970000     0.536155420000    -0.305313   
C2       C      0.252844650000     0.390718290000     0.589864510000     0.0547636  
C3       C      0.264891810000     0.358575140000     0.602026420000    -0.106924   
H3       H      0.278001450000     0.345593280000     0.588593150000     0.0407735  
C4       C      0.257316300000     0.345936770000     0.634242280000    -0.0206474  
H4       H      0.265392090000     0.323390880000     0.644005390000     0.0303483  
C6       C      0.342178630000     0.369707930000     0.536875060000     0.0497288  
C7       C      0.338084630000     0.392942490000     0.546350310000    -0.102061   
H7       H      0.319497120000     0.411503440000     0.546710130000     0.0406112  
C8       C      0.362029300000     0.388374110000     0.555441750000    -0.0219216  
H8       H      0.359696140000     0.404289570000     0.561702620000     0.0308114  
C9       C      0.325747630000     0.438364530000     0.464023550000     0.00398767 
H9       H      0.343912570000     0.423291830000     0.470500310000     0.0184817  
C11      C      0.231420910000     0.374607820000     0.538866060000     0.00395032 
H11      H      0.221688710000     0.378308070000     0.558704120000     0.0107714  
C12      C      0.263329280000     0.370486310000     0.492881090000     0.16301    
C13      C      0.219666440000     0.363580940000     0.528863070000    -0.000292576
H13      H      0.200303640000     0.358703890000     0.540305340000     0.0137349  
C15      C      0.261485160000     0.289292650000     0.456995070000     0.0555808  
C16      C      0.236909960000     0.291899780000     0.450734210000    -0.107215   
H16      H      0.218499690000     0.310701980000     0.450302420000     0.0428616  
C17      C      0.239426550000     0.266567800000     0.444905130000    -0.0225038  
H17      H      0.222407800000     0.268006850000     0.440995090000     0.0311895  
C20      C      0.165341600000     0.370764560000     0.492521270000     0.0798455  
H20      H      0.164901860000     0.390712470000     0.475489810000    -0.0415472  
C21      C      0.182662240000     0.322674470000     0.523010000000     0.0417544  
C26      C      0.149359130000     0.334046710000     0.536251370000     0.045917   
C28      C      0.107865880000     0.439630640000     0.540761110000     0.0488715  
C29      C      0.139343790000     0.436028110000     0.524497260000    -0.102733   
H29      H      0.152609080000     0.422598940000     0.511591720000     0.0488139  
C30      C      0.150795690000     0.452929810000     0.527663670000    -0.0204962  
H30      H      0.172710150000     0.451495590000     0.516293370000     0.060402   
C32      C      0.108838130000     0.420966180000     0.447759700000     0.0232842  
C36      C      0.042934780000     0.374033940000     0.567387770000     0.0210831  
Zn1      Zn+2   0.399548680000     0.282787790000     0.799399550000     1.18834    
Zn2      Zn+2   0.350596240000     0.235371030000     0.944838690000     1.19019    
Zn3      Zn+2   0.400444890000     0.097466380000     0.983555290000     1.17696    
O1       O      0.452724330000     0.231841610000     0.820341060000    -0.175776   
O2       O      0.381652500000     0.309907550000     0.847087660000    -0.152384   
O3       O      0.365295900000     0.292142530000     0.899093600000    -0.160387   
N1       N      0.410353310000     0.256231890000     0.775123710000    -0.291365   
N2       N      0.368135340000     0.324103550000     0.782991760000    -0.291758   
N3       N      0.436828540000     0.294839390000     0.788077220000    -0.280484   
N5       N      0.379337940000     0.259193860000     0.845552430000    -0.276216   
N6       N      0.372516770000     0.289962220000     0.873474440000    -0.0335081  
N7       N      0.360690650000     0.240894240000     0.899501400000    -0.281796   
N8       N      0.309524430000     0.265507250000     0.961630280000    -0.301839   
N9       N      0.381439200000     0.235038880000     0.957912140000    -0.284812   
N11      N      0.346141430000     0.192803070000     0.966427870000    -0.292387   
N12      N      0.364934820000     0.138746740000     0.980077040000    -0.299339   
N13      N      0.426050120000     0.088785470000     0.942631790000    -0.305558   
N14      N      0.428427850000     0.102300300000     0.996125000000    -0.299411   
N15      N      0.387330540000     0.060056170000     0.016455760000    -0.305313   
C2       C      0.390710280000     0.252844420000     0.766560000000     0.0547636  
C3       C      0.358581070000     0.264898200000     0.774500020000    -0.106924   
H3       H      0.345603010000     0.277995890000     0.787789360000     0.0407735  
C4       C      0.345942700000     0.257316760000     0.762506030000    -0.0206474  
H4       H      0.323388410000     0.265406620000     0.767207670000     0.0303483  
C6       C      0.369710410000     0.342176170000     0.751231670000     0.0497288  
C7       C      0.392943110000     0.338077890000     0.722614010000    -0.102061   
H7       H      0.411495040000     0.319500950000     0.722302170000     0.0406112  
C8       C      0.388373240000     0.362035440000     0.694164260000    -0.0219216  
H8       H      0.404290090000     0.359700150000     0.674302210000     0.0308114  
C9       C      0.438370450000     0.325755620000     0.771861340000     0.00398767 
H9       H      0.423313880000     0.343895260000     0.762290140000     0.0184817  
C11      C      0.374611310000     0.231405150000     0.855099640000     0.00395032 
H11      H      0.378297520000     0.221686860000     0.841306550000     0.0107714  
C12      C      0.370482380000     0.263331210000     0.873306520000     0.16301    
C13      C      0.363578640000     0.219660440000     0.887891220000    -0.000292576
H13      H      0.358703420000     0.200305650000     0.900700800000     0.0137349  
C15      C      0.289281380000     0.261478560000     0.992238940000     0.0555808  
C16      C      0.291885090000     0.236912990000     0.020461750000    -0.107215   
H16      H      0.310710210000     0.218487510000     0.020509730000     0.0428616  
C17      C      0.266565080000     0.239442770000     0.049103400000    -0.0225038  
H17      H      0.267997600000     0.222402930000     0.068605630000     0.0311895  
C20      C      0.370754460000     0.165350940000     0.971369400000     0.0798455  
H20      H      0.390700580000     0.164908030000     0.968898640000    -0.0415472  
C21      C      0.322661580000     0.182669380000     0.971657250000     0.0417544  
C26      C      0.334055810000     0.149356190000     0.980340900000     0.045917   
C28      C      0.439627890000     0.107881970000     0.911735270000     0.0488715  
C29      C      0.436020450000     0.139335660000     0.900149080000    -0.102733   
H29      H      0.422607050000     0.152603770000     0.913198540000     0.0488139  
C30      C      0.452926980000     0.150792270000     0.868628870000    -0.0204962  
H30      H      0.451497830000     0.172700560000     0.859489440000     0.060402   
C32      C      0.420963700000     0.108838280000     0.022428760000     0.0232842  
C36      C      0.374048480000     0.042936260000     0.015640170000     0.0210831  
Zn1      Zn+2   0.799399920000     0.518275120000     0.399543850000     1.18834    
Zn2      Zn+2   0.944845010000     0.469189220000     0.350584380000     1.19019    
Zn3      Zn+2   0.983549530000     0.518536670000     0.400455390000     1.17696    
O1       O      0.820358130000     0.495097520000     0.452725210000    -0.175776   
O2       O      0.847084000000     0.461367410000     0.381648820000    -0.152384   
O3       O      0.899090020000     0.443480870000     0.365289010000    -0.160387   
N1       N      0.775124500000     0.558303360000     0.410338440000    -0.291365   
N2       N      0.782994970000     0.524769440000     0.368119590000    -0.291758   
N3       N      0.788070640000     0.480270550000     0.436821180000    -0.280484   
N5       N      0.845541650000     0.515916080000     0.379345970000    -0.276216   
N6       N      0.873481770000     0.464052020000     0.372509390000    -0.0335081  
N7       N      0.899512260000     0.498910240000     0.360683320000    -0.281796   
N8       N      0.961617440000     0.463330070000     0.309540940000    -0.301839   
N9       N      0.957898050000     0.425607490000     0.381456910000    -0.284812   
N11      N      0.966439090000     0.494626910000     0.346122610000    -0.292387   
N12      N      0.980072200000     0.516243690000     0.364929190000    -0.299339   
N13      N      0.942626160000     0.542549500000     0.426050570000    -0.305558   
N14      N      0.996140580000     0.473140680000     0.428425380000    -0.299411   
N15      N      0.016454040000     0.536171510000     0.387309980000    -0.305313   
C2       C      0.766573160000     0.589857470000     0.390716270000     0.0547636  
C3       C      0.774507540000     0.602019530000     0.358572380000    -0.106924   
H3       H      0.787808120000     0.588591740000     0.345594880000     0.0407735  
C4       C      0.762508840000     0.634232140000     0.345930710000    -0.0206474  
H4       H      0.767201870000     0.644001990000     0.323405990000     0.0303483  
C6       C      0.751232510000     0.536884100000     0.369702800000     0.0497288  
C7       C      0.722618070000     0.546346820000     0.392947160000    -0.102061   
H7       H      0.722296260000     0.546701970000     0.411489870000     0.0406112  
C8       C      0.694181790000     0.555427830000     0.388365450000    -0.0219216  
H8       H      0.674308160000     0.561697930000     0.404293470000     0.0308114  
C9       C      0.771847900000     0.464032630000     0.438380400000     0.00398767 
H9       H      0.762306290000     0.470509540000     0.423291950000     0.0184817  
C11      C      0.855115910000     0.538863490000     0.374620340000     0.00395032 
H11      H      0.841308190000     0.558695680000     0.378290500000     0.0107714  
C12      C      0.873303530000     0.492888710000     0.370470420000     0.16301    
C13      C      0.887904830000     0.528858920000     0.363585860000    -0.000292576
H13      H      0.900708520000     0.540305480000     0.358692320000     0.0137349  
C15      C      0.992255120000     0.456991970000     0.289271090000     0.0555808  
C16      C      0.020469110000     0.450737770000     0.291885780000    -0.107215   
H16      H      0.020507830000     0.450303870000     0.310692360000     0.0428616  
C17      C      0.049092600000     0.444910790000     0.266554470000    -0.0225038  
H17      H      0.068605500000     0.440993390000     0.267993750000     0.0311895  
C20      C      0.971371740000     0.492521370000     0.370758270000     0.0798455  
H20      H      0.968898980000     0.475495910000     0.390692290000    -0.0415472  
C21      C      0.971646600000     0.523027630000     0.322662360000     0.0417544  
C26      C      0.980360750000     0.536236830000     0.334056660000     0.045917   
C28      C      0.911740280000     0.540760310000     0.439627770000     0.0488715  
C29      C      0.900144360000     0.524500090000     0.436029570000    -0.102733   
H29      H      0.913189180000     0.511608690000     0.422596300000     0.0488139  
C30      C      0.868610810000     0.527668570000     0.452917110000    -0.0204962  
H30      H      0.859495790000     0.516289500000     0.451501820000     0.060402   
C32      C      0.022441990000     0.447764420000     0.420965120000     0.0232842  
C36      C      0.015634930000     0.567370740000     0.374044620000     0.0210831  
Zn1      Zn+2   0.518262920000     0.799387310000     0.282794340000     1.18834    
Zn2      Zn+2   0.469183220000     0.944853420000     0.235370090000     1.19019    
Zn3      Zn+2   0.518527460000     0.983562630000     0.097463180000     1.17696    
O1       O      0.495090870000     0.820359230000     0.231819870000    -0.175776   
O2       O      0.461359110000     0.847072980000     0.309900760000    -0.152384   
O3       O      0.443466490000     0.899081600000     0.292149650000    -0.160387   
N1       N      0.558280690000     0.775128920000     0.256239640000    -0.291365   
N2       N      0.524764900000     0.782994740000     0.324101640000    -0.291758   
N3       N      0.480265210000     0.788090940000     0.294836300000    -0.280484   
N5       N      0.515917720000     0.845544400000     0.259190160000    -0.276216   
N6       N      0.464035550000     0.873484110000     0.289966740000    -0.0335081  
N7       N      0.498913460000     0.899500990000     0.240887330000    -0.281796   
N8       N      0.463336820000     0.961633130000     0.265499000000    -0.301839   
N9       N      0.425613360000     0.957901760000     0.235034260000    -0.284812   
N11      N      0.494634170000     0.966433770000     0.192815410000    -0.292387   
N12      N      0.516261100000     0.980069220000     0.138746500000    -0.299339   
N13      N      0.542533970000     0.942627200000     0.088779530000    -0.305558   
N14      N      0.473145340000     0.996135720000     0.102284760000    -0.299411   
N15      N      0.536159480000     0.016457780000     0.060065910000    -0.305313   
C2       C      0.589866600000     0.766576670000     0.252857330000     0.0547636  
C3       C      0.602014260000     0.774503980000     0.264899300000    -0.106924   
H3       H      0.588601420000     0.787801330000     0.277996740000     0.0407735  
C4       C      0.634226850000     0.762511180000     0.257319100000    -0.0206474  
H4       H      0.644004320000     0.767189380000     0.265403050000     0.0303483  
C6       C      0.536873130000     0.751228650000     0.342188580000     0.0497288  
C7       C      0.546360190000     0.722607030000     0.338086640000    -0.102061   
H7       H      0.546706260000     0.722290500000     0.319495950000     0.0406112  
C8       C      0.555418630000     0.694182090000     0.362026640000    -0.0219216  
H8       H      0.561700300000     0.674309210000     0.359699810000     0.0308114  
C9       C      0.464028980000     0.771858690000     0.325756810000     0.00398767 
H9       H      0.470509120000     0.762308220000     0.343891730000     0.0184817  
C11      C      0.538866150000     0.855120390000     0.231412080000     0.00395032 
H11      H      0.558700270000     0.841306240000     0.221696940000     0.0107714  
C12      C      0.492879480000     0.873290620000     0.263340080000     0.16301    
C13      C      0.528864360000     0.887896550000     0.219657960000    -0.000292576
H13      H      0.540306970000     0.900704440000     0.200299660000     0.0137349  
C15      C      0.457000610000     0.992241670000     0.261469020000     0.0555808  
C16      C      0.450725880000     0.020474500000     0.236905320000    -0.107215   
H16      H      0.450295200000     0.020501080000     0.218506540000     0.0428616  
C17      C      0.444897800000     0.049095680000     0.239448050000    -0.0225038  
H17      H      0.441010030000     0.068599260000     0.222392590000     0.0311895  
C20      C      0.492515570000     0.971382590000     0.165349170000     0.0798455  
H20      H      0.475489940000     0.968911050000     0.164893400000    -0.0415472  
C21      C      0.523012950000     0.971647980000     0.182668490000     0.0417544  
C26      C      0.536238580000     0.980357110000     0.149349180000     0.045917   
C28      C      0.540768910000     0.911746550000     0.107873960000     0.0488715  
C29      C      0.524486360000     0.900147610000     0.139346200000    -0.102733   
H29      H      0.511608970000     0.913185450000     0.152611550000     0.0488139  
C30      C      0.527669480000     0.868628820000     0.150788460000    -0.0204962  
H30      H      0.516310220000     0.859496570000     0.172689490000     0.060402   
C32      C      0.447757510000     0.022433540000     0.108833480000     0.0232842  
C36      C      0.567386470000     0.015630870000     0.042938490000     0.0210831  
Zn1      Zn+2   0.799391840000     0.282802390000     0.518260380000     1.18834    
Zn2      Zn+2   0.944857480000     0.235362210000     0.469180970000     1.19019    
Zn3      Zn+2   0.983551870000     0.097466060000     0.518524250000     1.17696    
O1       O      0.820340970000     0.231837780000     0.495087990000    -0.175776   
O2       O      0.847074580000     0.309910680000     0.461360880000    -0.152384   
O3       O      0.899099070000     0.292151420000     0.443465850000    -0.160387   
N1       N      0.775132160000     0.256226670000     0.558296320000    -0.291365   
N2       N      0.782992340000     0.324103600000     0.524761120000    -0.291758   
N3       N      0.788087340000     0.294834800000     0.480263410000    -0.280484   
N5       N      0.845555690000     0.259183240000     0.515909560000    -0.276216   
N6       N      0.873476310000     0.289949770000     0.464047540000    -0.0335081  
N7       N      0.899512710000     0.240901960000     0.498902080000    -0.281796   
N8       N      0.961636050000     0.265515500000     0.463327900000    -0.301839   
N9       N      0.957915500000     0.235024170000     0.425618790000    -0.284812   
N11      N      0.966428400000     0.192818640000     0.494632220000    -0.292387   
N12      N      0.980068910000     0.138753710000     0.516245390000    -0.299339   
N13      N      0.942610330000     0.088783590000     0.542536220000    -0.305558   
N14      N      0.996128110000     0.102304160000     0.473138980000    -0.299411   
N15      N      0.016463660000     0.060062180000     0.536155420000    -0.305313   
C2       C      0.766578960000     0.252850620000     0.589864510000     0.0547636  
C3       C      0.774490660000     0.264899310000     0.602026420000    -0.106924   
H3       H      0.787802330000     0.277993790000     0.588593150000     0.0407735  
C4       C      0.762501880000     0.257326940000     0.634242280000    -0.0206474  
H4       H      0.767194520000     0.265403230000     0.644005390000     0.0303483  
C6       C      0.751246910000     0.342184150000     0.536875060000     0.0497288  
C7       C      0.722631420000     0.338075860000     0.546350310000    -0.102061   
H7       H      0.722298340000     0.319501190000     0.546710130000     0.0406112  
C8       C      0.694162920000     0.362026370000     0.555441750000    -0.0219216  
H8       H      0.674298650000     0.359690640000     0.561702620000     0.0308114  
C9       C      0.771853070000     0.325759030000     0.464023550000     0.00398767 
H9       H      0.762301170000     0.343909360000     0.470500310000     0.0184817  
C11      C      0.855116610000     0.231402760000     0.538866060000     0.00395032 
H11      H      0.841298130000     0.221691670000     0.558704120000     0.0107714  
C12      C      0.873308910000     0.263331290000     0.492881090000     0.16301    
C13      C      0.887910260000     0.219652160000     0.528863070000    -0.000292576
H13      H      0.900698130000     0.200300810000     0.540305340000     0.0137349  
C15      C      0.992245550000     0.261474860000     0.456995070000     0.0555808  
C16      C      0.020466160000     0.236897450000     0.450734210000    -0.107215   
H16      H      0.020500940000     0.218496190000     0.450302420000     0.0428616  
C17      C      0.049104840000     0.239428500000     0.444905130000    -0.0225038  
H17      H      0.068596890000     0.222412810000     0.440995090000     0.0311895  
C20      C      0.971370060000     0.165342640000     0.492521270000     0.0798455  
H20      H      0.968897140000     0.164913450000     0.475489810000    -0.0415472  
C21      C      0.971656720000     0.182658280000     0.523010000000     0.0417544  
C26      C      0.980362760000     0.149341130000     0.536251370000     0.045917   
C28      C      0.911741410000     0.107875250000     0.540761110000     0.0488715  
C29      C      0.900140260000     0.139350270000     0.524497260000    -0.102733   
H29      H      0.913204330000     0.152608090000     0.511591720000     0.0488139  
C30      C      0.868623010000     0.150801500000     0.527663670000    -0.0204962  
H30      H      0.859496910000     0.172707080000     0.516293370000     0.060402   
C32      C      0.022444040000     0.108841560000     0.447759700000     0.0232842  
C36      C      0.015639740000     0.042934420000     0.567387770000     0.0210831  
Zn1      Zn+2   0.518262820000     0.399554650000     0.799399550000     1.18834    
Zn2      Zn+2   0.469197960000     0.350600000000     0.944838690000     1.19019    
Zn3      Zn+2   0.518534190000     0.400454100000     0.983555290000     1.17696    
O1       O      0.495089470000     0.452732940000     0.820341060000    -0.175776   
O2       O      0.461349700000     0.381668400000     0.847087660000    -0.152384   
O3       O      0.443480680000     0.365282960000     0.899093600000    -0.160387   
N1       N      0.558294180000     0.410360530000     0.775123710000    -0.291365   
N2       N      0.524763450000     0.368137070000     0.782991760000    -0.291758   
N3       N      0.480258680000     0.436823180000     0.788077220000    -0.280484   
N5       N      0.515902810000     0.379353130000     0.845552430000    -0.276216   
N6       N      0.464055800000     0.372510940000     0.873474440000    -0.0335081  
N7       N      0.498905400000     0.360691650000     0.899501400000    -0.281796   
N8       N      0.463332150000     0.309540770000     0.961630280000    -0.301839   
N9       N      0.425610460000     0.381455430000     0.957912140000    -0.284812   
N11      N      0.494634770000     0.346140150000     0.966427870000    -0.292387   
N12      N      0.516255510000     0.364930230000     0.980077040000    -0.299339   
N13      N      0.542528220000     0.426059180000     0.942631790000    -0.305558   
N14      N      0.473154870000     0.428424280000     0.996125000000    -0.299411   
N15      N      0.536160300000     0.387310960000     0.016455760000    -0.305313   
C2       C      0.589871070000     0.390712090000     0.766560000000     0.0547636  
C3       C      0.602028840000     0.358574040000     0.774500020000    -0.106924   
H3       H      0.588613700000     0.345595370000     0.787789360000     0.0407735  
C4       C      0.634237730000     0.345949210000     0.762506030000    -0.0206474  
H4       H      0.644006580000     0.323394260000     0.767207670000     0.0303483  
C6       C      0.536884970000     0.369699950000     0.751231670000     0.0497288  
C7       C      0.546367900000     0.392944520000     0.722614010000    -0.102061   
H7       H      0.546704570000     0.411503190000     0.722302170000     0.0406112  
C8       C      0.555430720000     0.388383180000     0.694164260000    -0.0219216  
H8       H      0.561693160000     0.404299070000     0.674302210000     0.0308114  
C9       C      0.464035560000     0.438361130000     0.771861340000     0.00398767 
H9       H      0.470495300000     0.423300340000     0.762290140000     0.0184817  
C11      C      0.538884260000     0.374610210000     0.855099640000     0.00395032 
H11      H      0.558702200000     0.378303270000     0.841306550000     0.0107714  
C12      C      0.492866450000     0.370486240000     0.873306520000     0.16301    
C13      C      0.528860750000     0.363589220000     0.887891220000    -0.000292576
H13      H      0.540290890000     0.358708730000     0.900700800000     0.0137349  
C15      C      0.457005760000     0.289273730000     0.992238940000     0.0555808  
C16      C      0.450737450000     0.291892700000     0.020461750000    -0.107215   
H16      H      0.450303190000     0.310693290000     0.020509730000     0.0428616  
C17      C      0.444891820000     0.266559460000     0.049103400000    -0.0225038  
H17      H      0.441002890000     0.267996960000     0.068605630000     0.0311895  
C20      C      0.492519860000     0.370772870000     0.971369400000     0.0798455  
H20      H      0.475503230000     0.390707050000     0.968898640000    -0.0415472  
C21      C      0.523011820000     0.322662960000     0.971657250000     0.0417544  
C26      C      0.536238880000     0.334061780000     0.980340900000     0.045917   
C28      C      0.540759300000     0.439614740000     0.911735270000     0.0488715  
C29      C      0.524497150000     0.436013500000     0.900149080000    -0.102733   
H29      H      0.511598330000     0.422594620000     0.913198540000     0.0488139  
C30      C      0.527651450000     0.452920580000     0.868628870000    -0.0204962  
H30      H      0.516297010000     0.451511690000     0.859489440000     0.060402   
C32      C      0.447757280000     0.420962910000     0.022428760000     0.0232842  
C36      C      0.567374940000     0.374035780000     0.015640170000     0.0210831  
Zn1      Zn+2   0.282787690000     0.799393090000     0.399543850000     1.18834    
Zn2      Zn+2   0.235380790000     0.944850770000     0.350584380000     1.19019    
Zn3      Zn+2   0.097476050000     0.983546050000     0.400455390000     1.17696    
O1       O      0.231825960000     0.820362090000     0.452725210000    -0.175776   
O2       O      0.309901560000     0.847084780000     0.381648820000    -0.152384   
O3       O      0.292161220000     0.899081960000     0.365289010000    -0.160387   
N1       N      0.256248250000     0.775123790000     0.410338440000    -0.291365   
N2       N      0.324108450000     0.782999930000     0.368119590000    -0.291758   
N3       N      0.294838870000     0.788075500000     0.436821180000    -0.280484   
N5       N      0.259194730000     0.845545560000     0.379345970000    -0.276216   
N6       N      0.289965640000     0.873493670000     0.372509390000    -0.0335081  
N7       N      0.240897990000     0.899509000000     0.360683320000    -0.281796   
N8       N      0.265512370000     0.961630320000     0.309540940000    -0.301839   
N9       N      0.235023520000     0.957899730000     0.381456910000    -0.284812   
N11      N      0.192813710000     0.966443730000     0.346122610000    -0.292387   
N12      N      0.138753420000     0.980077030000     0.364929190000    -0.299339   
N13      N      0.088783050000     0.942628090000     0.426050570000    -0.305558   
N14      N      0.102285030000     0.996137710000     0.428425380000    -0.299411   
N15      N      0.060062690000     0.016453810000     0.387309980000    -0.305313   
C2       C      0.252852360000     0.766556960000     0.390716270000     0.0547636  
C3       C      0.264887810000     0.774512430000     0.358572380000    -0.106924   
H3       H      0.278015040000     0.787794240000     0.345594880000     0.0407735  
C4       C      0.257310080000     0.762510590000     0.345930710000    -0.0206474  
H4       H      0.265409210000     0.767191820000     0.323405990000     0.0303483  
C6       C      0.342174210000     0.751239380000     0.369702800000     0.0497288  
C7       C      0.338086620000     0.722616610000     0.392947160000    -0.102061   
H7       H      0.319516850000     0.722293270000     0.411489870000     0.0406112  
C8       C      0.362020150000     0.694177530000     0.388365450000    -0.0219216  
H8       H      0.359703830000     0.674303430000     0.404293470000     0.0308114  
C9       C      0.325759890000     0.771837580000     0.438380400000     0.00398767 
H9       H      0.343908410000     0.762302300000     0.423291950000     0.0184817  
C11      C      0.231414190000     0.855104250000     0.374620340000     0.00395032 
H11      H      0.221710150000     0.841306310000     0.378290500000     0.0107714  
C12      C      0.263341080000     0.873313920000     0.370470420000     0.16301    
C13      C      0.219657520000     0.887889310000     0.363585860000    -0.000292576
H13      H      0.200307850000     0.900692840000     0.358692320000     0.0137349  
C15      C      0.261474990000     0.992246910000     0.289271090000     0.0555808  
C16      C      0.236916910000     0.020466710000     0.291885780000    -0.107215   
H16      H      0.218503080000     0.020507740000     0.310692360000     0.0428616  
C17      C      0.239434440000     0.049106640000     0.266554470000    -0.0225038  
H17      H      0.222408330000     0.068596890000     0.267993750000     0.0311895  
C20      C      0.165340060000     0.971371790000     0.370758270000     0.0798455  
H20      H      0.164907910000     0.968911100000     0.390692290000    -0.0415472  
C21      C      0.182661490000     0.971662960000     0.322662360000     0.0417544  
C26      C      0.149353060000     0.980348950000     0.334056660000     0.045917   
C28      C      0.107881890000     0.911732000000     0.439627770000     0.0488715  
C29      C      0.139337520000     0.900130690000     0.436029570000    -0.102733   
H29      H      0.152601740000     0.913202560000     0.422596300000     0.0488139  
C30      C      0.150796990000     0.868628710000     0.452917110000    -0.0204962  
H30      H      0.172703280000     0.859488630000     0.451501820000     0.060402   
C32      C      0.108829430000     0.022446280000     0.420965120000     0.0232842  
C36      C      0.042938690000     0.015628670000     0.374044620000     0.0210831  
Zn1      Zn+2   0.399541020000     0.518269340000     0.282794340000     1.18834    
Zn2      Zn+2   0.350586040000     0.469191860000     0.235370090000     1.19019    
Zn3      Zn+2   0.400452150000     0.518530630000     0.097463180000     1.17696    
O1       O      0.452734960000     0.495094650000     0.231819870000    -0.175776   
O2       O      0.381657540000     0.461355610000     0.309900760000    -0.152384   
O3       O      0.365292880000     0.443480520000     0.292149650000    -0.160387   
N1       N      0.410339670000     0.558285870000     0.256239640000    -0.291365   
N2       N      0.368138430000     0.524764250000     0.324101640000    -0.291758   
N3       N      0.436829380000     0.480263370000     0.294836300000    -0.280484   
N5       N      0.379341450000     0.515914920000     0.259190160000    -0.276216   
N6       N      0.372516520000     0.464042460000     0.289966740000    -0.0335081  
N7       N      0.360686580000     0.498902230000     0.240887330000    -0.281796   
N8       N      0.309541990000     0.463332870000     0.265499000000    -0.301839   
N9       N      0.381456800000     0.425609530000     0.235034260000    -0.284812   
N11      N      0.346126070000     0.494616950000     0.192815410000    -0.292387   
N12      N      0.364925120000     0.516258500000     0.138746500000    -0.299339   
N13      N      0.426061780000     0.542548610000     0.088779530000    -0.305558   
N14      N      0.428423360000     0.473161310000     0.102284760000    -0.299411   
N15      N      0.387326000000     0.536152860000     0.060065910000    -0.305313   
C2       C      0.390711890000     0.589877180000     0.252857330000     0.0547636  
C3       C      0.358587370000     0.602011080000     0.264899300000    -0.106924   
H3       H      0.345602500000     0.588598830000     0.277996740000     0.0407735  
C4       C      0.345953260000     0.634232730000     0.257319100000    -0.0206474  
H4       H      0.323395950000     0.643999550000     0.265403050000     0.0303483  
C6       C      0.369708180000     0.536873370000     0.342188580000     0.0497288  
C7       C      0.392928330000     0.546359860000     0.338086640000    -0.102061   
H7       H      0.411494510000     0.546699190000     0.319495950000     0.0406112  
C8       C      0.388369580000     0.555432390000     0.362026640000    -0.0219216  
H8       H      0.404299040000     0.561703710000     0.359699810000     0.0308114  
C9       C      0.438357760000     0.464031120000     0.325756810000     0.00398767 
H9       H      0.423317380000     0.470492840000     0.343891730000     0.0184817  
C11      C      0.374599210000     0.538879640000     0.231412080000     0.00395032 
H11      H      0.378303780000     0.558695610000     0.221696940000     0.0107714  
C12      C      0.370466930000     0.492888020000     0.263340080000     0.16301    
C13      C      0.363585740000     0.528866160000     0.219657960000    -0.000292576
H13      H      0.358697810000     0.540294470000     0.200299660000     0.0137349  
C15      C      0.289276390000     0.457009340000     0.261469020000     0.0555808  
C16      C      0.291892120000     0.450722950000     0.236905320000    -0.107215   
H16      H      0.310705710000     0.450297210000     0.218506540000     0.0428616  
C17      C      0.266562250000     0.444899830000     0.239448050000    -0.0225038  
H17      H      0.268012810000     0.440995760000     0.222392590000     0.0311895  
C20      C      0.370764700000     0.492509560000     0.165349170000     0.0798455  
H20      H      0.390702680000     0.475495870000     0.164893400000    -0.0415472  
C21      C      0.322664650000     0.523012650000     0.182668490000     0.0417544  
C26      C      0.334059570000     0.536245000000     0.149349180000     0.045917   
C28      C      0.439623390000     0.540752250000     0.107873960000     0.0488715  
C29      C      0.436011760000     0.524494400000     0.139346200000    -0.102733   
H29      H      0.422590290000     0.511591580000     0.152611550000     0.0488139  
C30      C      0.452911910000     0.527668680000     0.150788460000    -0.0204962  
H30      H      0.451505480000     0.516297440000     0.172689490000     0.060402   
C32      C      0.420970590000     0.447751680000     0.108833480000     0.0232842  
C36      C      0.374051280000     0.567372940000     0.042938490000     0.0210831  
Zn1      Zn+2   0.399544710000     0.799399070000     0.518260380000     1.18834    
Zn2      Zn+2   0.350594340000     0.944851500000     0.469180970000     1.19019    
Zn3      Zn+2   0.400453780000     0.983541760000     0.518524250000     1.17696    
O1       O      0.452733090000     0.820353610000     0.495087990000    -0.175776   
O2       O      0.381665140000     0.847088000000     0.461360880000    -0.152384   
O3       O      0.365292490000     0.899099360000     0.443465850000    -0.160387   
N1       N      0.410346320000     0.775130180000     0.558296320000    -0.291365   
N2       N      0.368130460000     0.782984020000     0.524761120000    -0.291758   
N3       N      0.436821650000     0.788069050000     0.480263410000    -0.280484   
N5       N      0.379348370000     0.845550540000     0.515909560000    -0.276216   
N6       N      0.372518270000     0.873467450000     0.464047540000    -0.0335081  
N7       N      0.360698580000     0.899505050000     0.498902080000    -0.281796   
N8       N      0.309519750000     0.961638670000     0.463327900000    -0.301839   
N9       N      0.381440630000     0.957902180000     0.425618790000    -0.284812   
N11      N      0.346139480000     0.966424530000     0.494632220000    -0.292387   
N12      N      0.364939230000     0.980072170000     0.516245390000    -0.299339   
N13      N      0.426060420000     0.942631360000     0.542536220000    -0.305558   
N14      N      0.428424090000     0.996137180000     0.473138980000    -0.299411   
N15      N      0.387329150000     0.016458360000     0.536155420000    -0.305313   
C2       C      0.390711560000     0.766575050000     0.589864510000     0.0547636  
C3       C      0.358571200000     0.774507610000     0.602026420000    -0.106924   
H3       H      0.345594470000     0.787805640000     0.588593150000     0.0407735  
C4       C      0.345939220000     0.762502490000     0.634242280000    -0.0206474  
H4       H      0.323388090000     0.767208980000     0.644005390000     0.0303483  
C6       C      0.369699090000     0.751241330000     0.536875060000     0.0497288  
C7       C      0.392944630000     0.722617200000     0.546350310000    -0.102061   
H7       H      0.411494090000     0.722293710000     0.546710130000     0.0406112  
C8       C      0.388365700000     0.694166230000     0.555441750000    -0.0219216  
H8       H      0.404294000000     0.674303040000     0.561702620000     0.0308114  
C9       C      0.438375440000     0.771861360000     0.464023550000     0.00398767 
H9       H      0.423305230000     0.762306980000     0.470500310000     0.0184817  
C11      C      0.374607410000     0.855109220000     0.538866060000     0.00395032 
H11      H      0.378289130000     0.841304620000     0.558704120000     0.0107714  
C12      C      0.370480400000     0.873309790000     0.492881090000     0.16301    
C13      C      0.363590810000     0.887889700000     0.528863070000    -0.000292576
H13      H      0.358692580000     0.900698430000     0.540305340000     0.0137349  
C15      C      0.289273900000     0.992245890000     0.456995070000     0.0555808  
C16      C      0.291895170000     0.020461490000     0.450734210000    -0.107215   
H16      H      0.310702440000     0.020492340000     0.450302420000     0.0428616  
C17      C      0.266568980000     0.049091500000     0.444905130000    -0.0225038  
H17      H      0.267994410000     0.068600800000     0.440995090000     0.0311895  
C20      C      0.370766740000     0.971380000000     0.492521270000     0.0798455  
H20      H      0.390710870000     0.968892750000     0.475489810000    -0.0415472  
C21      C      0.322670720000     0.971665720000     0.523010000000     0.0417544  
C26      C      0.334057320000     0.980346650000     0.536251370000     0.045917   
C28      C      0.439611690000     0.911741470000     0.540761110000     0.0488715  
C29      C      0.436018370000     0.900132840000     0.524497260000    -0.102733   
H29      H      0.422594560000     0.913209730000     0.511591720000     0.0488139  
C30      C      0.452917300000     0.868613500000     0.527663670000    -0.0204962  
H30      H      0.451499260000     0.859512430000     0.516293370000     0.060402   
C32      C      0.420952320000     0.022448100000     0.447759700000     0.0232842  
C36      C      0.374043200000     0.015636800000     0.567387770000     0.0210831  
Zn1      Zn+2   0.282788630000     0.518266490000     0.799399550000     1.18834    
Zn2      Zn+2   0.235366790000     0.469198760000     0.944838690000     1.19019    
Zn3      Zn+2   0.097465310000     0.518532700000     0.983555290000     1.17696    
O1       O      0.231825230000     0.495092870000     0.820341060000    -0.175776   
O2       O      0.309898510000     0.461367490000     0.847087660000    -0.152384   
O3       O      0.292140800000     0.443466770000     0.899093600000    -0.160387   
N1       N      0.256228480000     0.558292350000     0.775123710000    -0.291365   
N2       N      0.324109120000     0.524776090000     0.782991760000    -0.291758   
N3       N      0.294835250000     0.480268690000     0.788077220000    -0.280484   
N5       N      0.259186910000     0.515909070000     0.845552430000    -0.276216   
N6       N      0.289963980000     0.464038250000     0.873474440000    -0.0335081  
N7       N      0.240882640000     0.498921180000     0.899501400000    -0.281796   
N8       N      0.265512830000     0.463330170000     0.961630280000    -0.301839   
N9       N      0.235037880000     0.425602030000     0.957912140000    -0.284812   
N11      N      0.192815190000     0.494637380000     0.966427870000    -0.292387   
N12      N      0.138751900000     0.516254470000     0.980077040000    -0.299339   
N13      N      0.088769960000     0.542532030000     0.942631790000    -0.305558   
N14      N      0.102291960000     0.473158900000     0.996125000000    -0.299411   
N15      N      0.060058890000     0.536170050000     0.016455760000    -0.305313   
C2       C      0.252850060000     0.589869360000     0.766560000000     0.0547636  
C3       C      0.264901060000     0.602013600000     0.774500020000    -0.106924   
H3       H      0.278004920000     0.588605240000     0.787789360000     0.0407735  
C4       C      0.257313220000     0.634236480000     0.762506030000    -0.0206474  
H4       H      0.265397010000     0.643999920000     0.767207670000     0.0303483  
C6       C      0.342183930000     0.536878070000     0.751231670000     0.0497288  
C7       C      0.338074670000     0.546372060000     0.722614010000    -0.102061   
H7       H      0.319497900000     0.546702170000     0.722302170000     0.0406112  
C8       C      0.362031450000     0.555425600000     0.694164260000    -0.0219216  
H8       H      0.359694630000     0.561707040000     0.674302210000     0.0308114  
C9       C      0.325751920000     0.464030380000     0.771861340000     0.00398767 
H9       H      0.343911670000     0.470500120000     0.762290140000     0.0184817  
C11      C      0.231415780000     0.538870860000     0.855099640000     0.00395032 
H11      H      0.221704710000     0.558689180000     0.841306550000     0.0107714  
C12      C      0.263324730000     0.492884500000     0.873306520000     0.16301    
C13      C      0.219669080000     0.528867590000     0.887891220000    -0.000292576
H13      H      0.200304570000     0.540293300000     0.900700800000     0.0137349  
C15      C      0.261484910000     0.456994630000     0.992238940000     0.0555808  
C16      C      0.236921200000     0.450725490000     0.020461750000    -0.107215   
H16      H      0.218501950000     0.450302400000     0.020509730000     0.0428616  
C17      C      0.239433880000     0.444909920000     0.049103400000    -0.0225038  
H17      H      0.222399370000     0.440987410000     0.068605630000     0.0311895  
C20      C      0.165355960000     0.492515270000     0.971369400000     0.0798455  
H20      H      0.164897230000     0.475494760000     0.968898640000    -0.0415472  
C21      C      0.182669020000     0.523018880000     0.971657250000     0.0417544  
C26      C      0.149364090000     0.536249600000     0.980340900000     0.045917   
C28      C      0.107888520000     0.540753880000     0.911735270000     0.0488715  
C29      C      0.139344310000     0.524487630000     0.900149080000    -0.102733   
H29      H      0.152595760000     0.511611540000     0.913198540000     0.0488139  
C30      C      0.150792390000     0.527666750000     0.868628870000    -0.0204962  
H30      H      0.172695820000     0.516306780000     0.859489440000     0.060402   
C32      C      0.108836160000     0.447762970000     0.022428760000     0.0232842  
C36      C      0.042941910000     0.567380720000     0.015640170000     0.0210831  
Zn1      Zn+2   0.518268220000     0.282796420000     0.399543850000     1.18834    
Zn2      Zn+2   0.469200810000     0.235361490000     0.350584380000     1.19019    
Zn3      Zn+2   0.518518700000     0.097470360000     0.400455390000     1.17696    
O1       O      0.495090380000     0.231823650000     0.452725210000    -0.175776   
O2       O      0.461365300000     0.309907470000     0.381648820000    -0.152384   
O3       O      0.443459420000     0.292156630000     0.365289010000    -0.160387   
N1       N      0.558288480000     0.256242890000     0.410338440000    -0.291365   
N2       N      0.524776670000     0.324119510000     0.368119590000    -0.291758   
N3       N      0.480249410000     0.294841250000     0.436821180000    -0.280484   
N5       N      0.515897740000     0.259200870000     0.379345970000    -0.276216   
N6       N      0.464042880000     0.289953380000     0.372509390000    -0.0335081  
N7       N      0.498917420000     0.240883300000     0.360683320000    -0.281796   
N8       N      0.463328930000     0.265507150000     0.309540940000    -0.301839   
N9       N      0.425612920000     0.235021720000     0.381456910000    -0.284812   
N11      N      0.494624270000     0.192815220000     0.346122610000    -0.292387   
N12      N      0.516244870000     0.138758570000     0.364929190000    -0.299339   
N13      N      0.542539900000     0.088780320000     0.426050570000    -0.305558   
N14      N      0.473160000000     0.102282080000     0.428425380000    -0.299411   
N15      N      0.536159190000     0.060057630000     0.387309980000    -0.305313   
C2       C      0.589869200000     0.252855150000     0.390716270000     0.0547636  
C3       C      0.602012370000     0.264904130000     0.358572380000    -0.106924   
H3       H      0.588592960000     0.278005010000     0.345594880000     0.0407735  
C4       C      0.634241770000     0.257312420000     0.345930710000    -0.0206474  
H4       H      0.644002190000     0.265408680000     0.323405990000     0.0303483  
C6       C      0.536870570000     0.342182200000     0.369702800000     0.0497288  
C7       C      0.546359140000     0.338075270000     0.392947160000    -0.102061   
H7       H      0.546708010000     0.319500750000     0.411489870000     0.0406112  
C8       C      0.555432290000     0.362037670000     0.388365450000    -0.0219216  
H8       H      0.561705530000     0.359691030000     0.404293470000     0.0308114  
C9       C      0.464022800000     0.325735250000     0.438380400000     0.00398767 
H9       H      0.470493020000     0.343904680000     0.423291950000     0.0184817  
C11      C      0.538880140000     0.231397780000     0.374620340000     0.00395032 
H11      H      0.558702150000     0.221693360000     0.378290500000     0.0107714  
C12      C      0.492884650000     0.263335420000     0.370470420000     0.16301    
C13      C      0.528862770000     0.219651770000     0.363585860000    -0.000292576
H13      H      0.540302300000     0.200295220000     0.358692320000     0.0137349  
C15      C      0.457009790000     0.261475890000     0.289271090000     0.0555808  
C16      C      0.450733690000     0.236902670000     0.291885780000    -0.107215   
H16      H      0.450290910000     0.218511580000     0.310692360000     0.0428616  
C17      C      0.444893090000     0.239443640000     0.266554470000    -0.0225038  
H17      H      0.440997910000     0.222408900000     0.267993750000     0.0311895  
C20      C      0.492521330000     0.165334430000     0.370758270000     0.0798455  
H20      H      0.475500500000     0.164909180000     0.390692290000    -0.0415472  
C21      C      0.523029220000     0.182655510000     0.322662360000     0.0417544  
C26      C      0.536240520000     0.149343420000     0.334056660000     0.045917   
C28      C      0.540749740000     0.107888400000     0.439627770000     0.0488715  
C29      C      0.524499540000     0.139325500000     0.436029570000    -0.102733   
H29      H      0.511592870000     0.152600920000     0.422596300000     0.0488139  
C30      C      0.527655180000     0.150794090000     0.452917110000    -0.0204962  
H30      H      0.516290510000     0.172705900000     0.451501820000     0.060402   
C32      C      0.447757640000     0.108839730000     0.420965120000     0.0232842  
C36      C      0.567367670000     0.042948900000     0.374044620000     0.0210831  
Zn1      Zn+2   0.799381820000     0.399557490000     0.282794340000     1.18834    
Zn2      Zn+2   0.944840740000     0.350593100000     0.235370090000     1.19019    
Zn3      Zn+2   0.983556900000     0.400452040000     0.097463180000     1.17696    
O1       O      0.820353980000     0.452734720000     0.231819870000    -0.175776   
O2       O      0.847074000000     0.381656510000     0.309900760000    -0.152384   
O3       O      0.899090660000     0.365296700000     0.292149650000    -0.160387   
N1       N      0.775120090000     0.410354040000     0.256239640000    -0.291365   
N2       N      0.783006010000     0.368125230000     0.324101640000    -0.291758   
N3       N      0.788088370000     0.436817860000     0.294836300000    -0.280484   
N5       N      0.845550350000     0.379358990000     0.259190160000    -0.276216   
N6       N      0.873480870000     0.372515160000     0.289966740000    -0.0335081  
N7       N      0.899504040000     0.360695320000     0.240887330000    -0.281796   
N8       N      0.961621870000     0.309543480000     0.265499000000    -0.301839   
N9       N      0.957906560000     0.381440310000     0.235034260000    -0.284812   
N11      N      0.966435330000     0.346119720000     0.192815410000    -0.292387   
N12      N      0.980066960000     0.364934260000     0.138746500000    -0.299339   
N13      N      0.942624410000     0.426053140000     0.088779530000    -0.305558   
N14      N      0.996126630000     0.428426690000     0.102284760000    -0.299411   
N15      N      0.016454100000     0.387316380000     0.060065910000    -0.305313   
C2       C      0.766563860000     0.390697290000     0.252857330000     0.0547636  
C3       C      0.774510060000     0.358571510000     0.264899300000    -0.106924   
H3       H      0.787799020000     0.345611580000     0.277996740000     0.0407735  
C4       C      0.762500470000     0.345945460000     0.257319100000    -0.0206474  
H4       H      0.767207670000     0.323393890000     0.265403050000     0.0303483  
C6       C      0.751241090000     0.369695250000     0.342188580000     0.0497288  
C7       C      0.722616250000     0.392932320000     0.338086640000    -0.102061   
H7       H      0.722294680000     0.411500220000     0.319495950000     0.0406112  
C8       C      0.694165240000     0.388367350000     0.362026640000    -0.0219216  
H8       H      0.674300530000     0.404295740000     0.359699810000     0.0308114  
C9       C      0.771856120000     0.438361860000     0.325756810000     0.00398767 
H9       H      0.762312340000     0.423293070000     0.343891730000     0.0184817  
C11      C      0.855110940000     0.374618990000     0.231412080000     0.00395032 
H11      H      0.841298690000     0.378309690000     0.221696940000     0.0107714  
C12      C      0.873293600000     0.370489760000     0.263340080000     0.16301    
C13      C      0.887891620000     0.363587790000     0.219657960000    -0.000292576
H13      H      0.900695230000     0.358709900000     0.200299660000     0.0137349  
C15      C      0.992234080000     0.289288440000     0.261469020000     0.0555808  
C16      C      0.020462590000     0.291890160000     0.236905320000    -0.107215   
H16      H      0.020498040000     0.310688100000     0.218506540000     0.0428616  
C17      C      0.049097400000     0.266549370000     0.239448050000    -0.0225038  
H17      H      0.068609650000     0.268005310000     0.222392590000     0.0311895  
C20      C      0.971370240000     0.370767160000     0.165349170000     0.0798455  
H20      H      0.968894070000     0.390708160000     0.164893400000    -0.0415472  
C21      C      0.971664900000     0.322656730000     0.182668490000     0.0417544  
C26      C      0.980352340000     0.334057180000     0.149349180000     0.045917   
C28      C      0.911744730000     0.439613100000     0.107873960000     0.0488715  
C29      C      0.900135780000     0.436020270000     0.139346200000    -0.102733   
H29      H      0.913200180000     0.422597280000     0.152611550000     0.0488139  
C30      C      0.868629820000     0.452922510000     0.150788460000    -0.0204962  
H30      H      0.859505790000     0.451502350000     0.172689490000     0.060402   
C32      C      0.022455220000     0.420951620000     0.108833480000     0.0232842  
C36      C      0.015629260000     0.374050630000     0.042938490000     0.0210831  
N4       N      0.244575930000     0.470869550000     0.813696380000    -0.0255965  
C10      C      0.278757990000     0.462330560000     0.796568960000     0.178666   
C31      C      0.099029620000     0.459473670000     0.982020060000     0.105715   
H31      H      0.094494270000     0.471500730000     0.962493840000    -0.0518562  
N4       N      0.470873850000     0.244572640000     0.470860130000    -0.0255965  
C10      C      0.462348420000     0.278757120000     0.462344390000     0.178666   
C31      C      0.459477900000     0.099036720000     0.459465830000     0.105715   
H31      H      0.471490810000     0.094502560000     0.471507800000    -0.0518562  
N4       N      0.813679720000     0.470870780000     0.244581480000    -0.0255965  
C10      C      0.796559950000     0.462348730000     0.278764350000     0.178666   
C31      C      0.982035070000     0.459480460000     0.099022400000     0.105715   
H31      H      0.962501670000     0.471508180000     0.094488670000    -0.0518562  
N4       N      0.470884770000     0.813683870000     0.470860130000    -0.0255965  
C10      C      0.462339910000     0.796552450000     0.462344390000     0.178666   
C31      C      0.459468370000     0.982036620000     0.459465830000     0.105715   
H31      H      0.471496620000     0.962508000000     0.471507800000    -0.0518562  
N4       N      0.813689470000     0.244572640000     0.470860130000    -0.0255965  
C10      C      0.796565740000     0.278757120000     0.462344390000     0.178666   
C31      C      0.982035220000     0.099036720000     0.459465830000     0.105715   
H31      H      0.962494910000     0.094502560000     0.471507800000    -0.0518562  
N4       N      0.470864100000     0.470870780000     0.244581480000    -0.0255965  
C10      C      0.462342630000     0.462348730000     0.278764350000     0.178666   
C31      C      0.459477750000     0.459480460000     0.099022400000     0.105715   
H31      H      0.471497570000     0.471508180000     0.094488670000    -0.0518562  
N4       N      0.244586900000     0.813683870000     0.470860130000    -0.0255965  
C10      C      0.278759340000     0.796552450000     0.462344390000     0.178666   
C31      C      0.099025250000     0.982036620000     0.459465830000     0.105715   
H31      H      0.094483660000     0.962508000000     0.471507800000    -0.0518562  
N4       N      0.470873800000     0.470869550000     0.813696380000    -0.0255965  
C10      C      0.462338570000     0.462330560000     0.796568960000     0.178666   
C31      C      0.459472730000     0.459473670000     0.982020060000     0.105715   
H31      H      0.471507230000     0.471500730000     0.962493840000    -0.0518562  
N4       N      0.470874380000     0.813685440000     0.244581480000    -0.0255965  
C10      C      0.462341020000     0.796569270000     0.278764350000     0.178666   
C31      C      0.459484060000     0.982025160000     0.099022400000     0.105715   
H31      H      0.471511780000     0.962503440000     0.094488670000    -0.0518562  
N4       N      0.244576620000     0.470869220000     0.470860130000    -0.0255965  
C10      C      0.278760950000     0.462331900000     0.462344390000     0.178666   
C31      C      0.099030260000     0.459469300000     0.459465830000     0.105715   
H31      H      0.094500340000     0.471490120000     0.471507800000    -0.0518562  
N4       N      0.470873150000     0.244572980000     0.813696380000    -0.0255965  
C10      C      0.462345460000     0.278755780000     0.796568960000     0.178666   
C31      C      0.459477260000     0.099041080000     0.982020060000     0.105715   
H31      H      0.471504330000     0.094513170000     0.962493840000    -0.0518562  
N4       N      0.813690120000     0.470869220000     0.470860130000    -0.0255965  
C10      C      0.796558840000     0.462331900000     0.462344390000     0.178666   
C31      C      0.982030690000     0.459469300000     0.459465830000     0.105715   
H31      H      0.962497820000     0.471490120000     0.471507800000    -0.0518562  
N4       N      0.755424720000     0.529133210000     0.529126940000    -0.0255965  
C10      C      0.721232400000     0.537662530000     0.537666660000     0.178666   
C31      C      0.900971080000     0.540533120000     0.540521230000     0.105715   
H31      H      0.905493000000     0.528504310000     0.528503250000    -0.0518562  
N4       N      0.529139780000     0.755421450000     0.186314670000    -0.0255965  
C10      C      0.537667470000     0.721238650000     0.203442090000     0.178666   
C31      C      0.540543660000     0.900961350000     0.017967000000     0.105715   
H31      H      0.528505290000     0.905511870000     0.037493220000    -0.0518562  
N4       N      0.186311220000     0.529133210000     0.529126940000    -0.0255965  
C10      C      0.203434500000     0.537662530000     0.537666660000     0.178666   
C31      C      0.017970650000     0.540533120000     0.540521230000     0.105715   
H31      H      0.037495520000     0.528504310000     0.528503250000    -0.0518562  
N4       N      0.529138550000     0.186308990000     0.755429570000    -0.0255965  
C10      C      0.537660600000     0.203447770000     0.721246700000     0.178666   
C31      C      0.540536870000     0.017977260000     0.900964670000     0.105715   
H31      H      0.528509150000     0.037498980000     0.905498400000    -0.0518562  
N4       N      0.186311870000     0.755429780000     0.529126940000    -0.0255965  
C10      C      0.203447190000     0.721237310000     0.537666660000     0.178666   
C31      C      0.017985710000     0.900965710000     0.540521230000     0.105715   
H31      H      0.037498430000     0.905491870000     0.528503250000    -0.0518562  
N4       N      0.529139130000     0.529124870000     0.186314670000    -0.0255965  
C10      C      0.537654780000     0.537663870000     0.203442090000     0.178666   
C31      C      0.540528610000     0.540528760000     0.017967000000     0.105715   
H31      H      0.528494110000     0.528501690000     0.037493220000    -0.0518562  
N4       N      0.755434030000     0.186318550000     0.529126940000    -0.0255965  
C10      C      0.721234010000     0.203441980000     0.537666660000     0.178666   
C31      C      0.900976080000     0.017965800000     0.540521230000     0.105715   
H31      H      0.905498370000     0.037509050000     0.528503250000    -0.0518562  
N4       N      0.529129240000     0.529123650000     0.755429570000    -0.0255965  
C10      C      0.537658990000     0.537668310000     0.721246700000     0.178666   
C31      C      0.540543180000     0.540521970000     0.900964670000     0.105715   
H31      H      0.528503770000     0.528494240000     0.905498400000    -0.0518562  
N4       N      0.529136150000     0.186318550000     0.529126940000    -0.0255965  
C10      C      0.537653430000     0.203441980000     0.537666660000     0.178666   
C31      C      0.540532970000     0.017965800000     0.540521230000     0.105715   
H31      H      0.528485410000     0.037509050000     0.528503250000    -0.0518562  
N4       N      0.755437000000     0.529124870000     0.186314670000    -0.0255965  
C10      C      0.721235350000     0.537663870000     0.203442090000     0.178666   
C31      C      0.900971720000     0.540528760000     0.017967000000     0.105715   
H31      H      0.905507070000     0.528501690000     0.037493220000    -0.0518562  
N4       N      0.529127490000     0.755429780000     0.529126940000    -0.0255965  
C10      C      0.537664510000     0.721237310000     0.537666660000     0.178666   
C31      C      0.540543020000     0.900965710000     0.540521230000     0.105715   
H31      H      0.528502530000     0.905491870000     0.528503250000    -0.0518562  
N4       N      0.186313620000     0.529123650000     0.755429570000    -0.0255965  
C10      C      0.203441670000     0.537668310000     0.721246700000     0.178666   
C31      C      0.017985860000     0.540521970000     0.900964670000     0.105715   
H31      H      0.037499670000     0.528494240000     0.905498400000    -0.0518562  
C1       C      0.239156910000     0.440108920000     0.760850860000     0.0919745  
H1       H      0.237303950000     0.458694290000     0.762697930000    -0.0223584  
C27      C      0.060082510000     0.437976760000     0.939921150000     0.0930992  
H27      H      0.042193500000     0.432811310000     0.957792200000    -0.0580038  
C1       C      0.440125050000     0.239143950000     0.559879530000     0.0919745  
H1       H      0.458699570000     0.237312140000     0.541288840000    -0.0223584  
C27      C      0.437983310000     0.060081840000     0.562014460000     0.0930992  
H27      H      0.432793910000     0.042206820000     0.567195870000    -0.0580038  
C1       C      0.760856020000     0.559885510000     0.239160190000     0.0919745  
H1       H      0.762697390000     0.541308140000     0.237289130000    -0.0223584  
C27      C      0.939910830000     0.562017660000     0.060089900000     0.0930992  
H27      H      0.957807840000     0.567191110000     0.042194860000    -0.0580038  
C1       C      0.559895870000     0.760858470000     0.440107530000     0.0919745  
H1       H      0.541301770000     0.762690280000     0.458698220000    -0.0223584  
C27      C      0.562010030000     0.939912580000     0.437996590000     0.0930992  
H27      H      0.567207430000     0.957795600000     0.432791200000    -0.0580038  
C1       C      0.760855510000     0.239150560000     0.440107530000     0.0919745  
H1       H      0.762711420000     0.237295950000     0.458698220000    -0.0223584  
C27      C      0.939917250000     0.060078930000     0.437996590000     0.0930992  
H27      H      0.957802350000     0.042205910000     0.432791200000    -0.0580038  
C1       C      0.559876070000     0.440110710000     0.239160190000     0.0919745  
H1       H      0.541305500000     0.458714190000     0.237289130000    -0.0223584  
C27      C      0.562000610000     0.437991040000     0.060089900000     0.0930992  
H27      H      0.567194590000     0.432806320000     0.042194860000    -0.0580038  
C1       C      0.239145820000     0.760851860000     0.559879530000     0.0919745  
H1       H      0.237309500000     0.762706470000     0.541288840000    -0.0223584  
C27      C      0.060076100000     0.939915500000     0.562014460000     0.0930992  
H27      H      0.042198990000     0.957796510000     0.567195870000    -0.0580038  
C1       C      0.440117270000     0.559883720000     0.760850860000     0.0919745  
H1       H      0.458704120000     0.541310850000     0.762697930000    -0.0223584  
C27      C      0.437992730000     0.562003390000     0.939921150000     0.0930992  
H27      H      0.432806750000     0.567196100000     0.957792200000    -0.0580038  
C1       C      0.440107390000     0.760852060000     0.239160190000     0.0919745  
H1       H      0.458707660000     0.762697020000     0.237289130000    -0.0223584  
C27      C      0.437998340000     0.939909870000     0.060089900000     0.0930992  
H27      H      0.432813690000     0.957793560000     0.042194860000    -0.0580038  
C1       C      0.239140760000     0.559891910000     0.440107530000     0.0919745  
H1       H      0.237299580000     0.541301400000     0.458698220000    -0.0223584  
C27      C      0.060087120000     0.561997760000     0.437996590000     0.0930992  
H27      H      0.042210010000     0.567193150000     0.432791200000    -0.0580038  
C1       C      0.559885950000     0.239142360000     0.760850860000     0.0919745  
H1       H      0.541293680000     0.237305400000     0.762697930000    -0.0223584  
C27      C      0.562014590000     0.060084560000     0.939921150000     0.0930992  
H27      H      0.567207230000     0.042208860000     0.957792200000    -0.0580038  
C1       C      0.760860580000     0.440110510000     0.559879530000     0.0919745  
H1       H      0.762701760000     0.458701020000     0.541288840000    -0.0223584  
C27      C      0.939906220000     0.437996670000     0.562014460000     0.0930992  
H27      H      0.957791330000     0.432809270000     0.567195870000    -0.0580038  
C1       C      0.760855880000     0.559891910000     0.440107530000     0.0919745  
H1       H      0.762696880000     0.541301400000     0.458698220000    -0.0223584  
C27      C      0.939914610000     0.561997760000     0.437996590000     0.0930992  
H27      H      0.957801730000     0.567193150000     0.432791200000    -0.0580038  
C1       C      0.559876430000     0.760852060000     0.239160190000     0.0919745  
H1       H      0.541302270000     0.762697020000     0.237289130000    -0.0223584  
C27      C      0.562017560000     0.939909870000     0.060089900000     0.0930992  
H27      H      0.567213550000     0.957793560000     0.042194860000    -0.0580038  
C1       C      0.239145460000     0.440110510000     0.559879530000     0.0919745  
H1       H      0.237304460000     0.458701020000     0.541288840000    -0.0223584  
C27      C      0.060078730000     0.437996670000     0.562014460000     0.0930992  
H27      H      0.042199610000     0.432809270000     0.567195870000    -0.0580038  
C1       C      0.440116910000     0.239142360000     0.760850860000     0.0919745  
H1       H      0.458699070000     0.237305400000     0.762697930000    -0.0223584  
C27      C      0.437995370000     0.060084560000     0.939921150000     0.0930992  
H27      H      0.432807370000     0.042208860000     0.957792200000    -0.0580038  
C1       C      0.239153800000     0.760858470000     0.440107530000     0.0919745  
H1       H      0.237305810000     0.762690280000     0.458698220000    -0.0223584  
C27      C      0.060076880000     0.939912580000     0.437996590000     0.0930992  
H27      H      0.042201850000     0.957795600000     0.432791200000    -0.0580038  
C1       C      0.440113940000     0.559885510000     0.239160190000     0.0919745  
H1       H      0.458701430000     0.541308140000     0.237289130000    -0.0223584  
C27      C      0.437977690000     0.562017660000     0.060089900000     0.0930992  
H27      H      0.432802260000     0.567191110000     0.042194860000    -0.0580038  
C1       C      0.760867130000     0.239143950000     0.559879530000     0.0919745  
H1       H      0.762695530000     0.237312140000     0.541288840000    -0.0223584  
C27      C      0.939916460000     0.060081840000     0.562014460000     0.0930992  
H27      H      0.957799490000     0.042206820000     0.567195870000    -0.0580038  
C1       C      0.559898990000     0.440108920000     0.760850860000     0.0919745  
H1       H      0.541299910000     0.458694290000     0.762697930000    -0.0223584  
C27      C      0.562015660000     0.437976760000     0.939921150000     0.0930992  
H27      H      0.567199080000     0.432811310000     0.957792200000    -0.0580038  
C1       C      0.559882480000     0.239150560000     0.440107530000     0.0919745  
H1       H      0.541310080000     0.237295950000     0.458698220000    -0.0223584  
C27      C      0.562003320000     0.060078930000     0.437996590000     0.0930992  
H27      H      0.567196630000     0.042205910000     0.432791200000    -0.0580038  
C1       C      0.760849110000     0.440110710000     0.239160190000     0.0919745  
H1       H      0.762706850000     0.458714190000     0.237289130000    -0.0223584  
C27      C      0.939914530000     0.437991040000     0.060089900000     0.0930992  
H27      H      0.957800310000     0.432806320000     0.042194860000    -0.0580038  
C1       C      0.440118860000     0.760851860000     0.559879530000     0.0919745  
H1       H      0.458710850000     0.762706470000     0.541288840000    -0.0223584  
C27      C      0.437990020000     0.939915500000     0.562014460000     0.0930992  
H27      H      0.432804710000     0.957796510000     0.567195870000    -0.0580038  
C1       C      0.239144230000     0.559883720000     0.760850860000     0.0919745  
H1       H      0.237302770000     0.541310850000     0.762697930000    -0.0223584  
C27      C      0.060078810000     0.562003390000     0.939921150000     0.0930992  
H27      H      0.042201030000     0.567196100000     0.957792200000    -0.0580038  
C5       C      0.340947760000     0.340946530000     0.800311090000     0.10374    
H5       H      0.334190790000     0.334196500000     0.823003720000    -0.0241441  
C14      C      0.294265850000     0.294245960000     0.944958630000     0.110733   
H14      H      0.303396580000     0.303390550000     0.922409920000    -0.0243345  
C5       C      0.340956270000     0.340949960000     0.517780620000     0.10374    
H5       H      0.334197680000     0.334197040000     0.508593220000    -0.0241441  
C14      C      0.294254270000     0.294260030000     0.466518300000     0.110733   
H14      H      0.303414870000     0.303398460000     0.470788160000    -0.0243345  
C5       C      0.800306870000     0.517794100000     0.340941210000     0.10374    
H5       H      0.823004360000     0.508597230000     0.334200580000    -0.0241441  
C14      C      0.944960470000     0.466523760000     0.294260590000     0.110733   
H14      H      0.922405030000     0.470804900000     0.303400010000    -0.0243345  
C5       C      0.517791780000     0.800314260000     0.340941210000     0.10374    
H5       H      0.508601850000     0.823006080000     0.334200580000    -0.0241441  
C14      C      0.466533690000     0.944967100000     0.294260590000     0.110733   
H14      H      0.470797790000     0.922402940000     0.303400010000    -0.0243345  
C5       C      0.800312780000     0.340958910000     0.340941210000     0.10374    
H5       H      0.823003340000     0.334204580000     0.334200580000    -0.0241441  
C14      C      0.944954140000     0.294257020000     0.294260590000     0.110733   
H14      H      0.922396150000     0.303400620000     0.303400010000    -0.0243345  
C5       C      0.517783190000     0.340958910000     0.340941210000     0.10374    
H5       H      0.508607160000     0.334204580000     0.334200580000    -0.0241441  
C14      C      0.466524320000     0.294257020000     0.294260590000     0.110733   
H14      H      0.470799300000     0.303400620000     0.303400010000    -0.0243345  
C5       C      0.340964870000     0.800305320000     0.517780620000     0.10374    
H5       H      0.334211950000     0.822998550000     0.508593220000    -0.0241441  
C14      C      0.294263630000     0.944970110000     0.466518300000     0.110733   
H14      H      0.303413360000     0.922400780000     0.470788160000    -0.0243345  
C5       C      0.340961430000     0.517781720000     0.800311090000     0.10374    
H5       H      0.334211400000     0.508589150000     0.823003720000    -0.0241441  
C14      C      0.294260860000     0.466535310000     0.944958630000     0.110733   
H14      H      0.303405460000     0.470794830000     0.922409920000    -0.0243345  
C5       C      0.340948830000     0.800314260000     0.340941210000     0.10374    
H5       H      0.334187570000     0.823006080000     0.334200580000    -0.0241441  
C14      C      0.294254290000     0.944967100000     0.294260590000     0.110733   
H14      H      0.303395340000     0.922402940000     0.303400010000    -0.0243345  
C5       C      0.340953910000     0.517794100000     0.340941210000     0.10374    
H5       H      0.334193910000     0.508597230000     0.334200580000    -0.0241441  
C14      C      0.294251260000     0.466523760000     0.294260590000     0.110733   
H14      H      0.303405720000     0.470804900000     0.303400010000    -0.0243345  
C5       C      0.517790710000     0.340946530000     0.800311090000     0.10374    
H5       H      0.508605070000     0.334196500000     0.823003720000    -0.0241441  
C14      C      0.466545240000     0.294245960000     0.944958630000     0.110733   
H14      H      0.470799030000     0.303390550000     0.922409920000    -0.0243345  
C5       C      0.800309230000     0.340949960000     0.517780620000     0.10374    
H5       H      0.823008140000     0.334197040000     0.508593220000    -0.0241441  
C14      C      0.944963480000     0.294260030000     0.466518300000     0.110733   
H14      H      0.922414180000     0.303398460000     0.470788160000    -0.0243345  
C5       C      0.659045070000     0.659052460000     0.482206440000     0.10374    
H5       H      0.665803660000     0.665805380000     0.491393840000    -0.0241441  
C14      C      0.705747070000     0.705742390000     0.533468760000     0.110733   
H14      H      0.696606060000     0.696603960000     0.529198900000    -0.0243345  
C5       C      0.659045590000     0.659047900000     0.199699960000     0.10374    
H5       H      0.665802550000     0.665797930000     0.177007330000    -0.0241441  
C14      C      0.705755080000     0.705756470000     0.055028430000     0.110733   
H14      H      0.696596770000     0.696603880000     0.077601130000    -0.0243345  
C5       C      0.199694470000     0.482208330000     0.659045850000     0.10374    
H5       H      0.176988980000     0.491397200000     0.665810470000    -0.0241441  
C14      C      0.055032870000     0.533470660000     0.705750460000     0.110733   
H14      H      0.077607900000     0.529189530000     0.696611040000    -0.0243345  
C5       C      0.482209560000     0.199688160000     0.659045850000     0.10374    
H5       H      0.491391500000     0.176988350000     0.665810470000    -0.0241441  
C14      C      0.533479240000     0.055027330000     0.705750460000     0.110733   
H14      H      0.529195550000     0.077591490000     0.696611040000    -0.0243345  
C5       C      0.199692110000     0.659052460000     0.482206440000     0.10374    
H5       H      0.176993200000     0.665805380000     0.491393840000    -0.0241441  
C14      C      0.055037860000     0.705742390000     0.533468760000     0.110733   
H14      H      0.077606750000     0.696603960000     0.529198900000    -0.0243345  
C5       C      0.482202630000     0.659047900000     0.199699960000     0.10374    
H5       H      0.491388270000     0.665797930000     0.177007330000    -0.0241441  
C14      C      0.533475690000     0.705756470000     0.055028430000     0.110733   
H14      H      0.529194310000     0.696603880000     0.077601130000    -0.0243345  
C5       C      0.659052510000     0.199688160000     0.659045850000     0.10374    
H5       H      0.665805770000     0.176988350000     0.665810470000    -0.0241441  
C14      C      0.705758640000     0.055027330000     0.705750460000     0.110733   
H14      H      0.696598000000     0.077591490000     0.696611040000    -0.0243345  
C5       C      0.659047430000     0.482208330000     0.659045850000     0.10374    
H5       H      0.665799440000     0.491397200000     0.665810470000    -0.0241441  
C14      C      0.705742090000     0.533470660000     0.705750460000     0.110733   
H14      H      0.696607210000     0.529189530000     0.696611040000    -0.0243345  
C5       C      0.659056060000     0.199697110000     0.482206440000     0.10374    
H5       H      0.665808980000     0.177003880000     0.491393840000    -0.0241441  
C14      C      0.705757290000     0.055032320000     0.533468760000     0.110733   
H14      H      0.696607560000     0.077601650000     0.529198900000    -0.0243345  
C5       C      0.659051500000     0.482212710000     0.199699960000     0.10374    
H5       H      0.665801530000     0.491405280000     0.177007330000    -0.0241441  
C14      C      0.705760060000     0.533467110000     0.055028430000     0.110733   
H14      H      0.696607470000     0.529199600000     0.077601130000    -0.0243345  
C5       C      0.482218150000     0.659043520000     0.659045850000     0.10374    
H5       H      0.491405770000     0.665789850000     0.665810470000    -0.0241441  
C14      C      0.533457710000     0.705760020000     0.705750460000     0.110733   
H14      H      0.529194050000     0.696593810000     0.696611040000    -0.0243345  
C5       C      0.199688560000     0.659043520000     0.659045850000     0.10374    
H5       H      0.177009590000     0.665789850000     0.665810470000    -0.0241441  
C14      C      0.055027890000     0.705760020000     0.705750460000     0.110733   
H14      H      0.077597190000     0.696593810000     0.696611040000    -0.0243345  
C35      C      0.043027580000     0.394486200000     0.043034440000     0.100509   
H35      H      0.049497940000     0.404291190000     0.049511200000    -0.0590282  
C35      C      0.394473820000     0.043033920000     0.519459780000     0.100509   
H35      H      0.404311830000     0.049491320000     0.496695180000    -0.0590282  
C35      C      0.043030310000     0.519440090000     0.043034440000     0.100509   
H35      H      0.049496900000     0.496700530000     0.049511200000    -0.0590282  
C35      C      0.519442050000     0.043034220000     0.394482390000     0.100509   
H35      H      0.496706270000     0.049511390000     0.404293470000    -0.0590282  
C35      C      0.043029600000     0.043034220000     0.394482390000     0.100509   
H35      H      0.049496700000     0.049511390000     0.404293470000    -0.0590282  
C35      C      0.519440030000     0.394486200000     0.043034440000     0.100509   
H35      H      0.496707510000     0.404291190000     0.049511200000    -0.0590282  
C35      C      0.043020730000     0.043033920000     0.519459780000     0.100509   
H35      H      0.049509510000     0.049491320000     0.496695180000    -0.0590282  
C35      C      0.394483410000     0.519440090000     0.043034440000     0.100509   
H35      H      0.404299210000     0.496700530000     0.049511200000    -0.0590282  
C35      C      0.394481120000     0.043032200000     0.043034440000     0.100509   
H35      H      0.404289890000     0.049490010000     0.049511200000    -0.0590282  
C35      C      0.043031880000     0.519442100000     0.394482390000     0.100509   
H35      H      0.049497740000     0.496699290000     0.404293470000    -0.0590282  
C35      C      0.519440480000     0.043032200000     0.043034440000     0.100509   
H35      H      0.496697140000     0.049490010000     0.049511200000    -0.0590282  
C35      C      0.043020270000     0.394487920000     0.519459780000     0.100509   
H35      H      0.049500280000     0.404292500000     0.496695180000    -0.0590282  
C35      C      0.956973070000     0.605506510000     0.480551270000     0.100509   
H35      H      0.950501060000     0.595709930000     0.503291880000    -0.0590282  
C35      C      0.605512220000     0.956962230000     0.956976610000     0.100509   
H35      H      0.595703450000     0.950504420000     0.950499850000    -0.0590282  
C35      C      0.956969460000     0.480560320000     0.605504680000     0.100509   
H35      H      0.950503600000     0.503303130000     0.595693590000    -0.0590282  
C35      C      0.480552860000     0.956962230000     0.956976610000     0.100509   
H35      H      0.503296200000     0.950504420000     0.950499850000    -0.0590282  
C35      C      0.956972620000     0.956960510000     0.480551270000     0.100509   
H35      H      0.950491830000     0.950511110000     0.503291880000    -0.0590282  
C35      C      0.480553320000     0.605508230000     0.956976610000     0.100509   
H35      H      0.503305420000     0.595703230000     0.950499850000    -0.0590282  
C35      C      0.956971740000     0.956968200000     0.605504680000     0.100509   
H35      H      0.950504640000     0.950491030000     0.595693590000    -0.0590282  
C35      C      0.605509940000     0.480554340000     0.956976610000     0.100509   
H35      H      0.595694130000     0.503293900000     0.950499850000    -0.0590282  
C35      C      0.605519520000     0.956960510000     0.480551270000     0.100509   
H35      H      0.595689510000     0.950511110000     0.503291880000    -0.0590282  
C35      C      0.956963030000     0.480554340000     0.956976610000     0.100509   
H35      H      0.950496450000     0.503293900000     0.950499850000    -0.0590282  
C35      C      0.480559290000     0.956968200000     0.605504680000     0.100509   
H35      H      0.503314660000     0.950491030000     0.595693590000    -0.0590282  
C35      C      0.956965770000     0.605508230000     0.956976610000     0.100509   
H35      H      0.950495410000     0.595703230000     0.950499850000    -0.0590282  
N10      N      0.211688160000     0.432292180000     0.923729260000    -0.0311506  
O4       O      0.205331960000     0.419093680000     0.914541870000    -0.172691   
O4       O      0.205312670000     0.461046520000     0.914541870000    -0.172691   
C9A      C      0.226627600000     0.413307980000     0.946757730000     0.175667   
C8A      C      0.251451170000     0.372292140000     0.978277940000    -0.00115497 
H8A      H      0.261000320000     0.350790660000     0.990199970000     0.0176689  
C8A      C      0.251453720000     0.397984010000     0.978277940000    -0.00115497 
H8A      H      0.261001690000     0.397990440000     0.990199970000     0.0176689  
N10      N      0.432286580000     0.211700470000     0.432287450000    -0.0311506  
O4       O      0.419095860000     0.205324760000     0.461049040000    -0.172691   
O4       O      0.461045950000     0.205333010000     0.419094060000    -0.172691   
C9A      C      0.413295150000     0.226650030000     0.413288970000     0.175667   
C8A      C      0.372293410000     0.251450090000     0.397984630000    -0.00115497 
H8A      H      0.350806470000     0.260986080000     0.398008620000     0.0176689  
C8A      C      0.397991350000     0.251442300000     0.372293500000    -0.00115497 
H8A      H      0.398002940000     0.261004020000     0.350800270000     0.0176689  
N10      N      0.923727840000     0.432281440000     0.211693950000    -0.0311506  
O4       O      0.914531680000     0.461050130000     0.205313150000    -0.172691   
O4       O      0.914550970000     0.419097280000     0.205313150000    -0.172691   
C9A      C      0.946761910000     0.413300580000     0.226638470000     0.175667   
C8A      C      0.978264740000     0.397999120000     0.251442040000    -0.00115497 
H8A      H      0.990194840000     0.398005580000     0.260989260000     0.0176689  
C8A      C      0.978273500000     0.372284620000     0.251442040000    -0.00115497 
H8A      H      0.990193470000     0.350805800000     0.260989260000     0.0176689  
C8B      C      0.411194950000     0.988194510000     0.383999640000    -0.00815788 
H8B      H      0.418899840000     0.005696170000     0.369510900000     0.00642546 
C8B      C      0.384000210000     0.988196100000     0.411202010000    -0.00815788 
H8B      H      0.369505750000     0.005696930000     0.418902150000     0.00642546 
C9B      C      0.407500810000     0.943087120000     0.407507860000     0.160425   
H9B      H      0.413984240000     0.920407420000     0.414008600000    -0.0308619  
N10      N      0.923721580000     0.211700470000     0.432287450000    -0.0311506  
O4       O      0.914542650000     0.205333010000     0.419094060000    -0.172691   
O4       O      0.914526420000     0.205324760000     0.461049040000    -0.172691   
C9A      C      0.946761930000     0.226650030000     0.413288970000     0.175667   
C8A      C      0.978268930000     0.251442300000     0.372293500000    -0.00115497 
H8A      H      0.990188860000     0.261004020000     0.350800270000     0.0176689  
C8A      C      0.978267950000     0.251450090000     0.397984630000    -0.00115497 
H8A      H      0.990194910000     0.260986080000     0.398008620000     0.0176689  
N10      N      0.432292850000     0.432281440000     0.211693950000    -0.0311506  
O4       O      0.461054260000     0.419097280000     0.205313150000    -0.172691   
O4       O      0.419101120000     0.461050130000     0.205313150000    -0.172691   
C9A      C      0.413295130000     0.413300580000     0.226638470000     0.175667   
C8A      C      0.397995920000     0.372284620000     0.251442040000    -0.00115497 
H8A      H      0.398007550000     0.350805800000     0.260989260000     0.0176689  
C8A      C      0.372290190000     0.397999120000     0.251442040000    -0.00115497 
H8A      H      0.350806400000     0.398005580000     0.260989260000     0.0176689  
N10      N      0.211693780000     0.923722760000     0.432287450000    -0.0311506  
O4       O      0.205311020000     0.914542650000     0.461049040000    -0.172691   
O4       O      0.205327250000     0.914550900000     0.419094060000    -0.172691   
C9A      C      0.226631530000     0.946768880000     0.413288970000     0.175667   
C8A      C      0.251460730000     0.978263300000     0.397984630000    -0.00115497 
H8A      H      0.260994290000     0.990196590000     0.398008620000     0.0176689  
C8A      C      0.251450400000     0.978278120000     0.372293500000    -0.00115497 
H8A      H      0.260999540000     0.990191910000     0.350800270000     0.0176689  
N10      N      0.432286480000     0.432292180000     0.923729260000    -0.0311506  
O4       O      0.419095030000     0.461046520000     0.914541870000    -0.172691   
O4       O      0.461048170000     0.419093680000     0.914541870000    -0.172691   
C9A      C      0.413302780000     0.413307980000     0.946757730000     0.175667   
C8A      C      0.372280410000     0.397984010000     0.978277940000    -0.00115497 
H8A      H      0.350803990000     0.397990440000     0.990199970000     0.0176689  
C8A      C      0.397994420000     0.372292140000     0.978277940000    -0.00115497 
H8A      H      0.398005130000     0.350790660000     0.990199970000     0.0176689  
N10      N      0.432296350000     0.923729020000     0.211693950000    -0.0311506  
O4       O      0.419100580000     0.914547920000     0.205313150000    -0.172691   
O4       O      0.461034440000     0.914547920000     0.205313150000    -0.172691   
C9A      C      0.413304170000     0.946768850000     0.226638470000     0.175667   
C8A      C      0.372296980000     0.978282690000     0.251442040000    -0.00115497 
H8A      H      0.350808030000     0.990207830000     0.260989260000     0.0176689  
C8A      C      0.397993950000     0.978282690000     0.251442040000    -0.00115497 
H8A      H      0.398010550000     0.990207830000     0.260989260000     0.0176689  
N10      N      0.211678970000     0.432297790000     0.432287450000    -0.0311506  
O4       O      0.205308210000     0.461053120000     0.419094060000    -0.172691   
O4       O      0.205311260000     0.419092020000     0.461049040000    -0.172691   
C9A      C      0.226642070000     0.413300600000     0.413288970000     0.175667   
C8A      C      0.251443610000     0.397994550000     0.372293500000    -0.00115497 
H8A      H      0.260997910000     0.397989660000     0.350800270000     0.0176689  
C8A      C      0.251451390000     0.372287840000     0.397984630000    -0.00115497 
H8A      H      0.260991290000     0.350794560000     0.398008620000     0.0176689  
N10      N      0.432295770000     0.211694860000     0.923729260000    -0.0311506  
O4       O      0.461030830000     0.205326420000     0.914541870000    -0.172691   
O4       O      0.419096970000     0.205326420000     0.914541870000    -0.172691   
C9A      C      0.413311580000     0.226634790000     0.946757730000     0.175667   
C8A      C      0.397990160000     0.251454380000     0.978277940000    -0.00115497 
H8A      H      0.398006710000     0.261004790000     0.990199970000     0.0176689  
C8A      C      0.372293190000     0.251454380000     0.978277940000    -0.00115497 
H8A      H      0.350804200000     0.261004790000     0.990199970000     0.0176689  
C8B      C      0.988190710000     0.384007320000     0.411202010000    -0.00815788 
H8B      H      0.005708390000     0.369499310000     0.418902150000     0.00642546 
C8B      C      0.988200420000     0.411190270000     0.383999640000    -0.00815788 
H8B      H      0.005707630000     0.418892090000     0.369510900000     0.00642546 
C9B      C      0.943098740000     0.407492930000     0.407507860000     0.160425   
H9B      H      0.920403140000     0.413987980000     0.414008600000    -0.0308619  
N10      N      0.788322370000     0.567704630000     0.567699610000    -0.0311506  
O4       O      0.794682080000     0.580902410000     0.538962010000    -0.172691   
O4       O      0.794681830000     0.538971920000     0.580893010000    -0.172691   
C9A      C      0.773359270000     0.586701820000     0.586698100000     0.175667   
C8A      C      0.748549950000     0.627714580000     0.602002430000    -0.00115497 
H8A      H      0.739002060000     0.649199860000     0.602002430000     0.0176689  
C8A      C      0.748549740000     0.601999880000     0.627717550000    -0.00115497 
H8A      H      0.738995430000     0.602004770000     0.649210780000     0.0176689  
N10      N      0.567717160000     0.788299570000     0.076281790000    -0.0311506  
O4       O      0.580896370000     0.794668010000     0.085469180000    -0.172691   
O4       O      0.538962520000     0.794668010000     0.085469180000    -0.172691   
C9A      C      0.586709350000     0.773367630000     0.053229340000     0.175667   
C8A      C      0.627719740000     0.748540040000     0.021733110000    -0.00115497 
H8A      H      0.649208730000     0.738989630000     0.009811090000     0.0176689  
C8A      C      0.602022770000     0.748540040000     0.021733110000    -0.00115497 
H8A      H      0.602006220000     0.738989630000     0.009811090000     0.0176689  
N10      N      0.076269470000     0.567704630000     0.567699610000    -0.0311506  
O4       O      0.085449330000     0.538971920000     0.580893010000    -0.172691   
O4       O      0.085449580000     0.580902410000     0.538962010000    -0.172691   
C9A      C      0.053236890000     0.586701820000     0.586698100000     0.175667   
C8A      C      0.021728920000     0.601999880000     0.627717550000    -0.00115497 
H8A      H      0.009785100000     0.602004770000     0.649210780000     0.0176689  
C8A      C      0.021729120000     0.627714580000     0.602002430000    -0.00115497 
H8A      H      0.009791730000     0.649199860000     0.602002430000     0.0176689  
N10      N      0.567716580000     0.076265400000     0.788317100000    -0.0311506  
O4       O      0.538966900000     0.085454510000     0.794673910000    -0.172691   
O4       O      0.580900760000     0.085454510000     0.794673910000    -0.172691   
C9A      C      0.586716750000     0.053233570000     0.773348600000     0.175667   
C8A      C      0.602015660000     0.021742350000     0.748545020000    -0.00115497 
H8A      H      0.602010380000     0.009794590000     0.738997800000     0.0176689  
C8A      C      0.627712640000     0.021742350000     0.748545020000    -0.00115497 
H8A      H      0.649212900000     0.009794590000     0.738997800000     0.0176689  
N10      N      0.076268450000     0.788324570000     0.567699610000    -0.0311506  
O4       O      0.085466920000     0.794669670000     0.538962010000    -0.172691   
O4       O      0.085466960000     0.794692030000     0.580893010000    -0.172691   
C9A      C      0.053239410000     0.773352390000     0.586698100000     0.175667   
C8A      C      0.021733390000     0.748552340000     0.602002430000    -0.00115497 
H8A      H      0.009798430000     0.739008350000     0.602002430000     0.0176689  
C8A      C      0.021724420000     0.748552130000     0.627717550000    -0.00115497 
H8A      H      0.009804480000     0.738990410000     0.649210780000     0.0176689  
N10      N      0.567706860000     0.567702250000     0.076281790000    -0.0311506  
O4       O      0.538964760000     0.580900750000     0.085469180000    -0.172691   
O4       O      0.580898320000     0.538947910000     0.085469180000    -0.172691   
C9A      C      0.586698560000     0.586694450000     0.053229340000     0.175667   
C8A      C      0.602018510000     0.627702290000     0.021733110000    -0.00115497 
H8A      H      0.601988210000     0.649203770000     0.009811090000     0.0176689  
C8A      C      0.627712930000     0.602010410000     0.021733110000    -0.00115497 
H8A      H      0.649189350000     0.602003990000     0.009811090000     0.0176689  
C8B      C      0.783386360000     0.011799920000     0.616011410000    -0.00815788 
H8B      H      0.794092410000     0.994298260000     0.630500150000     0.00642546 
C8B      C      0.783395580000     0.011798330000     0.588809040000    -0.00815788 
H8B      H      0.794090340000     0.994297500000     0.581108900000     0.00642546 
C9B      C      0.758093060000     0.056907310000     0.592503190000     0.160425   
H9B      H      0.748386210000     0.079609630000     0.586002450000    -0.0308619  
C8B      C      0.616003160000     0.588802000000     0.783399560000    -0.00815788 
H8B      H      0.630508170000     0.581097040000     0.794098200000     0.00642546 
C8B      C      0.588787240000     0.616009150000     0.783399560000    -0.00815788 
H8B      H      0.581113320000     0.630490580000     0.794098200000     0.00642546 
C9B      C      0.592507040000     0.592511010000     0.758092240000     0.160425   
H9B      H      0.585999950000     0.585993860000     0.748401090000    -0.0308619  
N10      N      0.567709240000     0.076279660000     0.567699610000    -0.0311506  
O4       O      0.580899970000     0.085451780000     0.538962010000    -0.172691   
O4       O      0.538977470000     0.085451520000     0.580893010000    -0.172691   
C9A      C      0.586694630000     0.053233550000     0.586698100000     0.175667   
C8A      C      0.627713920000     0.021739130000     0.602002430000    -0.00115497 
H8A      H      0.649196760000     0.009797830000     0.602002430000     0.0176689  
C8A      C      0.602019280000     0.021716300000     0.627717550000    -0.00115497 
H8A      H      0.601988990000     0.009802510000     0.649210780000     0.0176689  
C8B      C      0.783404030000     0.588788390000     0.011802090000    -0.00815788 
H8B      H      0.794091310000     0.581102550000     0.994301910000     0.00642546 
C8B      C      0.783393210000     0.615995550000     0.011802090000    -0.00815788 
H8B      H      0.794092620000     0.630496080000     0.994301910000     0.00642546 
C9B      C      0.758096230000     0.592504660000     0.056899500000     0.160425   
H9B      H      0.748394480000     0.586003410000     0.079592130000    -0.0308619  
C8B      C      0.588789400000     0.783392980000     0.616011410000    -0.00815788 
H8B      H      0.581107310000     0.794100650000     0.630500150000     0.00642546 
C8B      C      0.616003730000     0.783391390000     0.588809040000    -0.00815788 
H8B      H      0.630501390000     0.794099890000     0.581108900000     0.00642546 
C9B      C      0.592508830000     0.758096490000     0.592503190000     0.160425   
H9B      H      0.586001230000     0.748389960000     0.586002450000    -0.0308619  
C8B      C      0.011800130000     0.616009150000     0.783399560000    -0.00815788 
H8B      H      0.994301820000     0.630490580000     0.794098200000     0.00642546 
C8B      C      0.011791360000     0.588802000000     0.783399560000    -0.00815788 
H8B      H      0.994300510000     0.581097040000     0.794098200000     0.00642546 
C9B      C      0.056905380000     0.592511010000     0.758092240000     0.160425   
H9B      H      0.079601170000     0.585993860000     0.748401090000    -0.0308619  
H32      H      0.112808360000     0.400398450000     0.038188870000     0.00269757 
H32      H      0.112801830000     0.448593330000     0.038188870000     0.00269757 
C33      C      0.390199950000     0.118388530000     0.447207970000    -0.108116   
H33      H      0.371605430000     0.119198740000     0.465606760000     0.0372209  
C33      C      0.447202970000     0.118397490000     0.390188540000    -0.108116   
H33      H      0.465590440000     0.119211760000     0.371597850000     0.0372209  
C34      C      0.389890890000     0.126301230000     0.417702750000    -0.0223905  
H34      H      0.369994050000     0.132206580000     0.415591810000     0.0295385  
C34      C      0.417700680000     0.126295990000     0.389900680000    -0.0223905  
H34      H      0.415591670000     0.132208960000     0.369990660000     0.0295385  
H32      H      0.038203490000     0.448603490000     0.112791500000     0.00269757 
H32      H      0.038190440000     0.400408600000     0.112791500000     0.00269757 
H32      H      0.448608620000     0.038186970000     0.400407420000     0.00269757 
H32      H      0.400394150000     0.038203050000     0.448599280000     0.00269757 
H32      H      0.038188060000     0.112797440000     0.400407420000     0.00269757 
H32      H      0.038205890000     0.112790910000     0.448599280000     0.00269757 
C33      C      0.447197540000     0.390192200000     0.118404690000    -0.108116   
H33      H      0.465592450000     0.371609300000     0.119196290000     0.0372209  
C33      C      0.390192180000     0.447207360000     0.118404690000    -0.108116   
H33      H      0.371609150000     0.465601760000     0.119196290000     0.0372209  
C34      C      0.417705160000     0.389890980000     0.126296730000    -0.0223905  
H34      H      0.415586580000     0.370012020000     0.132197780000     0.0295385  
C34      C      0.389890130000     0.417708770000     0.126296730000    -0.0223905  
H34      H      0.369991330000     0.415606060000     0.132197780000     0.0295385  
H32      H      0.112791770000     0.038203050000     0.448599280000     0.00269757 
H32      H      0.112804830000     0.038186970000     0.400407420000     0.00269757 
H32      H      0.400404220000     0.448593330000     0.038188870000     0.00269757 
H32      H      0.448612160000     0.400398450000     0.038188870000     0.00269757 
H32      H      0.400401480000     0.038211960000     0.112791500000     0.00269757 
H32      H      0.448602890000     0.038211960000     0.112791500000     0.00269757 
C33      C      0.118389550000     0.447212790000     0.390188540000    -0.108116   
H33      H      0.119196510000     0.465599760000     0.371597850000     0.0372209  
C33      C      0.118391890000     0.390188670000     0.447207970000    -0.108116   
H33      H      0.119194790000     0.371594280000     0.465606760000     0.0372209  
C34      C      0.126295490000     0.417704280000     0.389900680000    -0.0223905  
H34      H      0.132204680000     0.415611150000     0.369990660000     0.0295385  
C34      C      0.126300730000     0.389891730000     0.417702750000    -0.0223905  
H34      H      0.132213610000     0.369992130000     0.415591810000     0.0295385  
C33      C      0.447184840000     0.118404290000     0.044209850000    -0.108116   
H33      H      0.465599600000     0.119192210000     0.043610150000     0.0372209  
C33      C      0.390189270000     0.118404290000     0.044209850000    -0.108116   
H33      H      0.371605870000     0.119192210000     0.043610150000     0.0372209  
C34      C      0.417693840000     0.126301960000     0.066110880000    -0.0223905  
H34      H      0.415589210000     0.132199460000     0.082206820000     0.0295385  
C34      C      0.389901150000     0.126301960000     0.066110880000    -0.0223905  
H34      H      0.369992760000     0.132199460000     0.082206820000     0.0295385  
C33      C      0.044199720000     0.390188670000     0.447207970000    -0.108116   
H33      H      0.043592420000     0.371594280000     0.465606760000     0.0372209  
C33      C      0.044197370000     0.447212790000     0.390188540000    -0.108116   
H33      H      0.043594140000     0.465599760000     0.371597850000     0.0372209  
C34      C      0.066093030000     0.389891730000     0.417702750000    -0.0223905  
H34      H      0.082210280000     0.369992130000     0.415591810000     0.0295385  
C34      C      0.066087800000     0.417704280000     0.389900680000    -0.0223905  
H34      H      0.082201350000     0.415611150000     0.369990660000     0.0295385  
C33      C      0.881601450000     0.609805760000     0.552803080000    -0.108116   
H33      H      0.880798550000     0.628400150000     0.534404290000     0.0372209  
C33      C      0.881611790000     0.552789630000     0.609798530000    -0.108116   
H33      H      0.880804830000     0.534402670000     0.628389210000     0.0372209  
C34      C      0.873692620000     0.610102690000     0.582308300000    -0.0223905  
H34      H      0.867787730000     0.630010300000     0.584395250000     0.0295385  
C34      C      0.873697860000     0.582290140000     0.610110370000    -0.0223905  
H34      H      0.867796660000     0.584391270000     0.629996410000     0.0295385  
C33      C      0.609804080000     0.881590140000     0.955801200000    -0.108116   
H33      H      0.628407060000     0.880802220000     0.956400900000     0.0372209  
C33      C      0.552808510000     0.881590140000     0.955801200000    -0.108116   
H33      H      0.534393740000     0.880802220000     0.956400900000     0.0372209  
C34      C      0.610111770000     0.873692470000     0.933900170000    -0.0223905  
H34      H      0.630000590000     0.867794970000     0.917804230000     0.0295385  
C34      C      0.582299500000     0.873692470000     0.933900170000    -0.0223905  
H34      H      0.584404130000     0.867794970000     0.917804230000     0.0295385  
H32      H      0.961795430000     0.551393320000     0.599603630000     0.00269757 
H32      H      0.961790650000     0.599594730000     0.551411770000     0.00269757 
H32      H      0.551398450000     0.961790460000     0.887195560000     0.00269757 
H32      H      0.599599860000     0.961790460000     0.887195560000     0.00269757 
C33      C      0.955801550000     0.881605900000     0.552803080000    -0.108116   
H33      H      0.956396440000     0.880795690000     0.534404290000     0.0372209  
C33      C      0.955802090000     0.881604930000     0.609798530000    -0.108116   
H33      H      0.956401840000     0.880813280000     0.628389210000     0.0372209  
C34      C      0.933899970000     0.873693190000     0.582308300000    -0.0223905  
H34      H      0.917805540000     0.867795840000     0.584395250000     0.0295385  
C34      C      0.933902450000     0.873698430000     0.610110370000    -0.0223905  
H34      H      0.917804370000     0.867793470000     0.629996410000     0.0295385  
C33      C      0.552800580000     0.609790000000     0.955801200000    -0.108116   
H33      H      0.534398230000     0.628406680000     0.956400900000     0.0372209  
C33      C      0.609794640000     0.552797460000     0.955801200000    -0.108116   
H33      H      0.628412420000     0.534391610000     0.956400900000     0.0372209  
C34      C      0.582299840000     0.610101970000     0.933900170000    -0.0223905  
H34      H      0.584389650000     0.630009430000     0.917804230000     0.0295385  
C34      C      0.610103570000     0.582306800000     0.933900170000    -0.0223905  
H34      H      0.629996200000     0.584392780000     0.917804230000     0.0295385  
C33      C      0.881604320000     0.955808310000     0.609798530000    -0.108116   
H33      H      0.880809170000     0.956396250000     0.628389210000     0.0372209  
C33      C      0.881584180000     0.955809280000     0.552803080000    -0.108116   
H33      H      0.880792460000     0.956401270000     0.534404290000     0.0372209  
C34      C      0.873696590000     0.933902460000     0.610110370000    -0.0223905  
H34      H      0.867810420000     0.917797640000     0.629996410000     0.0295385  
C34      C      0.873694110000     0.933897220000     0.582308300000    -0.0223905  
H34      H      0.867811580000     0.917800010000     0.584395250000     0.0295385  
C33      C      0.609801160000     0.552787070000     0.881606360000    -0.108116   
H33      H      0.628411770000     0.534400660000     0.880790770000     0.0372209  
C33      C      0.552795800000     0.609802220000     0.881606360000    -0.108116   
H33      H      0.534408890000     0.628393120000     0.880790770000     0.0372209  
C34      C      0.610111210000     0.582293660000     0.873690330000    -0.0223905  
H34      H      0.630010010000     0.584396370000     0.867789290000     0.0295385  
C34      C      0.582296180000     0.610111450000     0.873690330000    -0.0223905  
H34      H      0.584403460000     0.630013020000     0.867789290000     0.0295385  
C33      C      0.609787790000     0.955809280000     0.552803080000    -0.108116   
H33      H      0.628405890000     0.956401270000     0.534404290000     0.0372209  
C33      C      0.552792760000     0.955808310000     0.609798530000    -0.108116   
H33      H      0.534409290000     0.956396250000     0.628389210000     0.0372209  
C34      C      0.610104290000     0.933897220000     0.582308300000    -0.0223905  
H34      H      0.629997070000     0.917800010000     0.584395250000     0.0295385  
C34      C      0.582294500000     0.933902460000     0.610110370000    -0.0223905  
H34      H      0.584399460000     0.917797640000     0.629996410000     0.0295385  
H32      H      0.887199510000     0.551409090000     0.961798190000     0.00269757 
H32      H      0.887192980000     0.599603970000     0.961798190000     0.00269757 
H32      H      0.551398010000     0.887196990000     0.599603630000     0.00269757 
H32      H      0.599601170000     0.887203520000     0.551411770000     0.00269757 
H32      H      0.961810900000     0.599593820000     0.887195560000     0.00269757 
H32      H      0.961797850000     0.551398940000     0.887195560000     0.00269757 
C37      C      0.047789840000     0.361999970000     0.993006560000    -0.105258   
H37      H      0.066400380000     0.361804510000     0.974391880000     0.0367197  
C37      C      0.993001120000     0.362001420000     0.047808050000    -0.105258   
H37      H      0.974406260000     0.361797790000     0.066398740000     0.0367197  
C38      C      0.025908740000     0.350692980000     0.998092010000    -0.0178415  
H38      H      0.033895350000     0.343097470000     0.980508820000     0.0253942  
C38      C      0.998110940000     0.350688730000     0.025907020000    -0.0178415  
H38      H      0.980501370000     0.343095750000     0.033895020000     0.0253942  
H36      H      0.366297590000     0.048706920000     0.585690600000     0.00243253 
H36      H      0.366293940000     0.999306310000     0.585690600000     0.00243253 
H36      H      0.999304270000     0.585695300000     0.048695610000     0.00243253 
H36      H      0.048705960000     0.585704040000     0.999291410000     0.00243253 
C37      C      0.597204730000     0.992993830000     0.362002660000    -0.105258   
H37      H      0.597392370000     0.974399530000     0.361810750000     0.0367197  
C37      C      0.597189060000     0.047799680000     0.362002660000    -0.105258   
H37      H      0.597393070000     0.066386230000     0.361810750000     0.0367197  
C38      C      0.625295540000     0.998094300000     0.350704320000    -0.0178415  
H38      H      0.642497170000     0.980500710000     0.343100130000     0.0253942  
C38      C      0.625306430000     0.025896540000     0.350704320000    -0.0178415  
H38      H      0.642497080000     0.033904360000     0.343100130000     0.0253942  
H36      H      0.999300760000     0.048697860000     0.366296510000     0.00243253 
H36      H      0.048705020000     0.999297250000     0.366296510000     0.00243253 
C37      C      0.597185490000     0.362001420000     0.047808050000    -0.105258   
H37      H      0.597393300000     0.361797790000     0.066398740000     0.0367197  
C37      C      0.597199710000     0.361999970000     0.993006560000    -0.105258   
H37      H      0.597399310000     0.361804510000     0.974391880000     0.0367197  
C38      C      0.625308990000     0.350688730000     0.025907020000    -0.0178415  
H38      H      0.642503940000     0.343095750000     0.033895020000     0.0253942  
C38      C      0.625302350000     0.350692980000     0.998092010000    -0.0178415  
H38      H      0.642494440000     0.343097470000     0.980508820000     0.0253942  
C37      C      0.047803720000     0.993003080000     0.597204830000    -0.105258   
H37      H      0.066413680000     0.974393920000     0.597396740000     0.0367197  
C37      C      0.992993950000     0.047808930000     0.597204830000    -0.105258   
H37      H      0.974395380000     0.066403240000     0.597396740000     0.0367197  
C38      C      0.025906730000     0.998091450000     0.625294760000    -0.0178415  
H38      H      0.033894290000     0.980507500000     0.642494150000     0.0253942  
C38      C      0.998113190000     0.025893700000     0.625294760000    -0.0178415  
H38      H      0.980490720000     0.033911150000     0.642494150000     0.0253942  
C37      C      0.362001070000     0.597207280000     0.993006560000    -0.105258   
H37      H      0.361812570000     0.597396290000     0.974391880000     0.0367197  
C37      C      0.361998160000     0.597186120000     0.047808050000    -0.105258   
H37      H      0.361806560000     0.597389580000     0.066398740000     0.0367197  
C38      C      0.350701480000     0.625297520000     0.998092010000    -0.0178415  
H38      H      0.343101940000     0.642489240000     0.980508820000     0.0253942  
C38      C      0.350708110000     0.625293260000     0.025907020000    -0.0178415  
H38      H      0.343100130000     0.642510140000     0.033895020000     0.0253942  
H36      H      0.366309090000     0.999298310000     0.048695610000     0.00243253 
H36      H      0.366306520000     0.048707650000     0.999291410000     0.00243253 
H36      H      0.048696830000     0.585694240000     0.366296510000     0.00243253 
H36      H      0.999308500000     0.585694240000     0.366296510000     0.00243253 
H36      H      0.585710080000     0.048707650000     0.999291410000     0.00243253 
H36      H      0.585712660000     0.999298310000     0.048695610000     0.00243253 
C37      C      0.993002770000     0.361991620000     0.597204830000    -0.105258   
H37      H      0.974399850000     0.361791960000     0.597396740000     0.0367197  
C37      C      0.047796860000     0.361991620000     0.597204830000    -0.105258   
H37      H      0.066407540000     0.361791960000     0.597396740000     0.0367197  
C38      C      0.998095470000     0.350705950000     0.625294760000    -0.0178415  
H38      H      0.980511180000     0.343095680000     0.642494150000     0.0253942  
C38      C      0.025899910000     0.350705950000     0.625294760000    -0.0178415  
H38      H      0.033914660000     0.343095680000     0.642494150000     0.0253942  
H36      H      0.951306760000     0.633697790000     0.414296460000     0.00243253 
H36      H      0.000695080000     0.633697790000     0.414296460000     0.00243253 
C37      C      0.638000690000     0.952199760000     0.007004490000    -0.105258   
H37      H      0.638196460000     0.933609250000     0.025595180000     0.0367197  
C37      C      0.637999240000     0.007004160000     0.952203000000    -0.105258   
H37      H      0.638203180000     0.025602670000     0.933588320000     0.0367197  
C38      C      0.649309380000     0.974099080000     0.001895050000    -0.0178415  
H38      H      0.656901280000     0.966104100000     0.019502230000     0.0253942  
C38      C      0.649305640000     0.001897580000     0.974104030000    -0.0178415  
H38      H      0.656911000000     0.019494860000     0.966092040000     0.0253942  
C37      C      0.006988520000     0.402804740000     0.638008390000    -0.105258   
H37      H      0.025599200000     0.402605080000     0.638200300000     0.0367197  
C37      C      0.952194430000     0.402804740000     0.638008390000    -0.105258   
H37      H      0.933591510000     0.402605080000     0.638200300000     0.0367197  
C38      C      0.001895030000     0.374703720000     0.649306730000    -0.0178415  
H38      H      0.019508540000     0.357491150000     0.656910920000     0.0253942  
C38      C      0.974090600000     0.374703720000     0.649306730000    -0.0178415  
H38      H      0.966105060000     0.357491150000     0.656910920000     0.0253942  
H36      H      0.414308270000     0.000704110000     0.951291460000     0.00243253 
H36      H      0.414310840000     0.951294770000     0.000695650000     0.00243253 
H36      H      0.000700370000     0.951295500000     0.414296460000     0.00243253 
H36      H      0.951296110000     0.000696110000     0.414296460000     0.00243253 
C37      C      0.402793630000     0.637994460000     0.007004490000    -0.105258   
H37      H      0.402602030000     0.638197920000     0.025595180000     0.0367197  
C37      C      0.402807850000     0.637993000000     0.952203000000    -0.105258   
H37      H      0.402608040000     0.638204630000     0.933588320000     0.0367197  
C38      C      0.374698990000     0.649309440000     0.001895050000    -0.0178415  
H38      H      0.357498910000     0.656896950000     0.019502230000     0.0253942  
C38      C      0.374703940000     0.649305700000     0.974104030000    -0.0178415  
H38      H      0.357497400000     0.656906670000     0.966092040000     0.0253942  
H36      H      0.951296320000     0.000705170000     0.633690560000     0.00243253 
H36      H      0.000700580000     0.951304570000     0.633690560000     0.00243253 
H36      H      0.633700440000     0.414307120000     0.951291460000     0.00243253 
H36      H      0.633706670000     0.414298390000     0.000695650000     0.00243253 
H36      H      0.633707400000     0.000696110000     0.414296460000     0.00243253 
H36      H      0.633703750000     0.951295500000     0.414296460000     0.00243253 
C37      C      0.952200870000     0.402809760000     0.007004490000    -0.105258   
H37      H      0.933606010000     0.402606130000     0.025595180000     0.0367197  
C37      C      0.006989590000     0.402808310000     0.952203000000    -0.105258   
H37      H      0.025600130000     0.402612850000     0.933588320000     0.0367197  
C38      C      0.974096260000     0.374704910000     0.001895050000    -0.0178415  
H38      H      0.966097260000     0.357505190000     0.019502230000     0.0253942  
C38      C      0.001905660000     0.374701170000     0.974104030000    -0.0178415  
H38      H      0.019510550000     0.357492290000     0.966092040000     0.0253942  
C37      C      0.402804280000     0.952194740000     0.638008390000    -0.105258   
H37      H      0.402600270000     0.933608200000     0.638200300000     0.0367197  
C37      C      0.402788610000     0.007000590000     0.638008390000    -0.105258   
H37      H      0.402600980000     0.025594900000     0.638200300000     0.0367197  
C38      C      0.374706500000     0.974097890000     0.649306730000    -0.0178415  
H38      H      0.357496270000     0.966090070000     0.656910920000     0.0253942  
C38      C      0.374697800000     0.001900130000     0.649306730000    -0.0178415  
H38      H      0.357496180000     0.019493720000     0.656910920000     0.0253942  
C37      C      0.006992230000     0.637993000000     0.952203000000    -0.105258   
H37      H      0.025595080000     0.638204630000     0.933588320000     0.0367197  
C37      C      0.952203500000     0.637994460000     0.007004490000    -0.105258   
H37      H      0.933600960000     0.638197920000     0.025595180000     0.0367197  
C38      C      0.001901990000     0.649305700000     0.974104030000    -0.0178415  
H38      H      0.019499970000     0.656906670000     0.966092040000     0.0253942  
C38      C      0.974092600000     0.649309440000     0.001895050000    -0.0178415  
H38      H      0.966097990000     0.656896950000     0.019502230000     0.0253942  
C22      C      0.199797320000     0.291854400000     0.969570300000    -0.102158   
H22      H      0.222599300000     0.283596440000     0.963405390000     0.0426133  
C23      C      0.183199240000     0.274110020000     0.976598780000    -0.0221442  
H23      H      0.194603610000     0.252805900000     0.976190980000     0.0298369  
C25      C      0.133040300000     0.315203050000     0.986505820000    -0.107168   
H25      H      0.110386300000     0.323209970000     0.991999060000     0.0432493  
C24      C      0.150240420000     0.285405600000     0.984370890000    -0.0223412  
H24      H      0.139799930000     0.272207560000     0.988208960000     0.029495   
C22      C      0.291858140000     0.199786840000     0.538794090000    -0.102158   
H22      H      0.283591470000     0.222600670000     0.530398300000     0.0426133  
C23      C      0.274103660000     0.183201470000     0.566092420000    -0.0221442  
H23      H      0.252788320000     0.194599350000     0.576407250000     0.0298369  
C25      C      0.315191000000     0.133047460000     0.565252840000    -0.107168   
H25      H      0.323202110000     0.110392830000     0.574392260000     0.0432493  
C24      C      0.285386400000     0.150248450000     0.580005450000    -0.0223412  
H24      H      0.272192120000     0.139807020000     0.599795540000     0.029495   
C22      C      0.969574710000     0.538788800000     0.199795910000    -0.102158   
H22      H      0.963404360000     0.530393040000     0.222608490000     0.0426133  
C23      C      0.976596710000     0.566101320000     0.183196230000    -0.0221442  
H23      H      0.976212680000     0.576393040000     0.194590520000     0.0298369  
C25      C      0.986500830000     0.565270860000     0.133037360000    -0.107168   
H25      H      0.992003980000     0.574402200000     0.110392700000     0.0432493  
C24      C      0.984361720000     0.580005290000     0.150236740000    -0.0223412  
H24      H      0.988206830000     0.599789740000     0.139801970000     0.029495   
C22      C      0.538795690000     0.969558820000     0.291861790000    -0.102158   
H22      H      0.530391560000     0.963398700000     0.283609930000     0.0426133  
C23      C      0.566083770000     0.976606660000     0.274110690000    -0.0221442  
H23      H      0.576390070000     0.976198560000     0.252809360000     0.0298369  
C25      C      0.565251250000     0.986498100000     0.315202100000    -0.107168   
H25      H      0.574410290000     0.991999840000     0.323190100000     0.0432493  
C24      C      0.580006430000     0.984352140000     0.285409030000    -0.0223412  
H24      H      0.599815400000     0.988192530000     0.272191650000     0.029495   
C22      C      0.969577830000     0.199775050000     0.291861790000    -0.102158   
H22      H      0.963395040000     0.222586140000     0.283609930000     0.0426133  
C23      C      0.976600760000     0.183189070000     0.274110690000    -0.0221442  
H23      H      0.976205670000     0.194586570000     0.252809360000     0.0298369  
C25      C      0.986498780000     0.133034800000     0.315202100000    -0.107168   
H25      H      0.991999610000     0.110402130000     0.323190100000     0.0432493  
C24      C      0.984347010000     0.150248210000     0.285409030000    -0.0223412  
H24      H      0.988210640000     0.139795230000     0.272191650000     0.029495   
C22      C      0.538799600000     0.291843730000     0.199795910000    -0.102158   
H22      H      0.530395620000     0.283606290000     0.222608490000     0.0426133  
C23      C      0.566094820000     0.274105010000     0.183196230000    -0.0221442  
H23      H      0.576396160000     0.252802060000     0.194590520000     0.0298369  
C25      C      0.565257780000     0.315204780000     0.133037360000    -0.107168   
H25      H      0.574401350000     0.323205320000     0.110392700000     0.0432493  
C24      C      0.579998020000     0.285408130000     0.150236740000    -0.0223412  
H24      H      0.599793160000     0.272195720000     0.139801970000     0.029495   
C22      C      0.199778550000     0.969570610000     0.538794090000    -0.102158   
H22      H      0.222598220000     0.963390620000     0.530398300000     0.0426133  
C23      C      0.183204050000     0.976596440000     0.566092420000    -0.0221442  
H23      H      0.194604890000     0.976188720000     0.576407250000     0.0298369  
C25      C      0.133031060000     0.986510750000     0.565252840000    -0.107168   
H25      H      0.110393810000     0.992013160000     0.574392260000     0.0432493  
C24      C      0.150237270000     0.984352380000     0.580005450000    -0.0223412  
H24      H      0.139806870000     0.988204320000     0.599795540000     0.029495   
C22      C      0.291850300000     0.538799460000     0.969570300000    -0.102158   
H22      H      0.283597810000     0.530405800000     0.963405390000     0.0426133  
C23      C      0.274095050000     0.566106330000     0.976598780000    -0.0221442  
H23      H      0.252799270000     0.576396880000     0.976190980000     0.0298369  
C25      C      0.315195750000     0.565269140000     0.986505820000    -0.107168   
H25      H      0.323196600000     0.574406860000     0.991999060000     0.0432493  
C24      C      0.285393080000     0.580002750000     0.984370890000    -0.0223412  
H24      H      0.272203600000     0.599801590000     0.988208960000     0.029495   
C22      C      0.291860360000     0.969557420000     0.199795910000    -0.102158   
H22      H      0.283591210000     0.963400650000     0.222608490000     0.0426133  
C23      C      0.274092340000     0.976605920000     0.183196230000    -0.0221442  
H23      H      0.252811630000     0.976200240000     0.194590520000     0.0298369  
C25      C      0.315203710000     0.986495490000     0.133037360000    -0.107168   
H25      H      0.323201660000     0.992008260000     0.110392700000     0.0432493  
C24      C      0.285403200000     0.984358320000     0.150236740000    -0.0223412  
H24      H      0.272209030000     0.988198430000     0.139801970000     0.029495   
C22      C      0.199775680000     0.538790200000     0.291861790000    -0.102158   
H22      H      0.222594880000     0.530391090000     0.283609930000     0.0426133  
C23      C      0.183184880000     0.566102050000     0.274110690000    -0.0221442  
H23      H      0.194605890000     0.576391370000     0.252809360000     0.0298369  
C25      C      0.133039270000     0.565250850000     0.315202100000    -0.107168   
H25      H      0.110410980000     0.574393780000     0.323190100000     0.0432493  
C24      C      0.150237220000     0.579999110000     0.285409030000    -0.0223412  
H24      H      0.139793310000     0.599806450000     0.272191650000     0.029495   
C22      C      0.538801340000     0.199784310000     0.969570300000    -0.102158   
H22      H      0.530397190000     0.222600850000     0.963405390000     0.0426133  
C23      C      0.566106610000     0.183193350000     0.976598780000    -0.0221442  
H23      H      0.576417120000     0.194592090000     0.976190980000     0.0298369  
C25      C      0.565257810000     0.133030470000     0.986505820000    -0.107168   
H25      H      0.574398120000     0.110392590000     0.991999060000     0.0432493  
C24      C      0.579995290000     0.150229240000     0.984370890000    -0.0223412  
H24      H      0.599806780000     0.139790370000     0.988208960000     0.029495   
C22      C      0.969568900000     0.291856930000     0.538794090000    -0.102158   
H22      H      0.963403410000     0.283596260000     0.530398300000     0.0426133  
C23      C      0.976610860000     0.274095530000     0.566092420000    -0.0221442  
H23      H      0.976210520000     0.252790540000     0.576407250000     0.0298369  
C25      C      0.986505200000     0.315197430000     0.565252840000    -0.107168   
H25      H      0.991991920000     0.323210220000     0.574392260000     0.0432493  
C24      C      0.984350980000     0.285402190000     0.580005450000    -0.0223412  
H24      H      0.988205160000     0.272201600000     0.599795540000     0.029495   
C22      C      0.800217180000     0.708137500000     0.461216960000    -0.102158   
H22      H      0.777403230000     0.716406160000     0.469588760000     0.0426133  
C23      C      0.816804060000     0.725906900000     0.433894640000    -0.0221442  
H23      H      0.805405570000     0.747203890000     0.423603800000     0.0298369  
C25      C      0.866960720000     0.684805000000     0.434734220000    -0.107168   
H25      H      0.889599660000     0.676792210000     0.425594800000     0.0432493  
C24      C      0.849755880000     0.714592240000     0.420005600000    -0.0223412  
H24      H      0.860207550000     0.727800820000     0.400191530000     0.029495   
H21      H      0.697903650000     0.803695740000     0.030296820000     0.0076031  
H26      H      0.677315680000     0.863696030000     0.014488740000     0.00403276 
C22      C      0.030424930000     0.461204230000     0.708149260000    -0.102158   
H22      H      0.036593160000     0.469603340000     0.716401120000     0.0426133  
C23      C      0.023394880000     0.433892370000     0.725900360000    -0.0221442  
H23      H      0.023803880000     0.423603060000     0.747201690000     0.0298369  
C25      C      0.013489490000     0.434743570000     0.684808950000    -0.107168   
H25      H      0.008000120000     0.425608640000     0.676796960000     0.0432493  
C24      C      0.015642610000     0.419995320000     0.714602020000    -0.0223412  
H24      H      0.011796660000     0.400195970000     0.727795420000     0.029495   
C22      C      0.461210950000     0.030437010000     0.800215140000    -0.102158   
H22      H      0.469597610000     0.036593770000     0.777402560000     0.0426133  
C23      C      0.433899740000     0.023396500000     0.816790830000    -0.0221442  
H23      H      0.423607650000     0.023802190000     0.805396540000     0.0298369  
C25      C      0.434741810000     0.013506940000     0.866949710000    -0.107168   
H25      H      0.425607870000     0.007994170000     0.889594360000     0.0432493  
C24      C      0.420003510000     0.015644110000     0.849750320000    -0.0223412  
H24      H      0.400206690000     0.011796000000     0.860209080000     0.029495   
C22      C      0.030436330000     0.800207590000     0.461216960000    -0.102158   
H22      H      0.036595700000     0.777401750000     0.469588760000     0.0426133  
C23      C      0.023402800000     0.816800950000     0.433894640000    -0.0221442  
H23      H      0.023792180000     0.805395080000     0.423603800000     0.0298369  
C25      C      0.013496550000     0.866954970000     0.434734220000    -0.107168   
H25      H      0.007992460000     0.889609590000     0.425594800000     0.0432493  
C24      C      0.015626260000     0.849768590000     0.420005600000    -0.0223412  
H24      H      0.011799930000     0.860195400000     0.400191530000     0.029495   
H21      H      0.468096820000     0.697897680000     0.030296820000     0.0076031  
H26      H      0.444505830000     0.677294240000     0.014488740000     0.00403276 
C22      C      0.800213570000     0.030435610000     0.708149260000    -0.102158   
H22      H      0.777397450000     0.036595720000     0.716401120000     0.0426133  
C23      C      0.816787060000     0.023410380000     0.725900360000    -0.0221442  
H23      H      0.805395250000     0.023795870000     0.747201690000     0.0298369  
C25      C      0.866948710000     0.013496330000     0.684808950000    -0.107168   
H25      H      0.889605490000     0.008002580000     0.676796960000     0.0432493  
C24      C      0.849764850000     0.015642290000     0.714602020000    -0.0223412  
H24      H      0.860204830000     0.011809900000     0.727795420000     0.029495   
C22      C      0.708156680000     0.461205630000     0.800215140000    -0.102158   
H22      H      0.716403150000     0.469601390000     0.777402560000     0.0426133  
C23      C      0.725899510000     0.433901110000     0.816790830000    -0.0221442  
H23      H      0.747201500000     0.423609380000     0.805396540000     0.0298369  
C25      C      0.684802990000     0.434754180000     0.866949710000    -0.107168   
H25      H      0.676804140000     0.425600220000     0.889594360000     0.0432493  
C24      C      0.714609000000     0.419997140000     0.849750320000    -0.0223412  
H24      H      0.727795800000     0.400204680000     0.860209080000     0.029495   
C22      C      0.708140510000     0.030423820000     0.461216960000    -0.102158   
H22      H      0.716392400000     0.036611800000     0.469588760000     0.0426133  
C23      C      0.725898170000     0.023405980000     0.433894640000    -0.0221442  
H23      H      0.747198130000     0.023805710000     0.423603800000     0.0298369  
C25      C      0.684799910000     0.013491670000     0.434734220000    -0.107168   
H25      H      0.676793180000     0.008011880000     0.425594800000     0.0432493  
C24      C      0.714592360000     0.015642050000     0.420005600000    -0.0223412  
H24      H      0.727811980000     0.011798110000     0.400191530000     0.029495   
C22      C      0.800206020000     0.461217580000     0.030440750000    -0.102158   
H22      H      0.777406260000     0.469588630000     0.036605660000     0.0426133  
C23      C      0.816805410000     0.433896100000     0.023388280000    -0.0221442  
H23      H      0.805392390000     0.423605540000     0.023796080000     0.0298369  
C25      C      0.866956660000     0.434747910000     0.013505230000    -0.107168   
H25      H      0.889599780000     0.425587570000     0.008011990000     0.0432493  
C24      C      0.849763980000     0.419991670000     0.015640170000    -0.0223412  
H24      H      0.860211410000     0.400192840000     0.011802090000     0.029495   
C22      C      0.461211930000     0.800219380000     0.708149260000    -0.102158   
H22      H      0.469588360000     0.777408290000     0.716401120000     0.0426133  
C23      C      0.433897780000     0.816805350000     0.725900360000    -0.0221442  
H23      H      0.423598860000     0.805407850000     0.747201690000     0.0298369  
C25      C      0.434732950000     0.866959620000     0.684808950000    -0.107168   
H25      H      0.425597100000     0.889600290000     0.676796960000     0.0432493  
C24      C      0.419990190000     0.849768840000     0.714602020000    -0.0223412  
H24      H      0.400202780000     0.860207190000     0.727795420000     0.029495   
C22      C      0.030436510000     0.708150690000     0.800215140000    -0.102158   
H22      H      0.036607660000     0.716388130000     0.777402560000     0.0426133  
C23      C      0.023401310000     0.725897420000     0.816790830000    -0.0221442  
H23      H      0.023793990000     0.747200360000     0.805396540000     0.0298369  
C25      C      0.013505170000     0.684797650000     0.866949710000    -0.107168   
H25      H      0.008004620000     0.676797110000     0.889594360000     0.0432493  
C24      C      0.015648150000     0.714594290000     0.849750320000    -0.0223412  
H24      H      0.011788110000     0.727798710000     0.860209080000     0.029495   
C22      C      0.800215610000     0.708140030000     0.030440750000    -0.102158   
H22      H      0.777394050000     0.716397990000     0.036605660000     0.0426133  
C23      C      0.816790790000     0.725915020000     0.023388280000    -0.0221442  
H23      H      0.805397730000     0.747196520000     0.023796080000     0.0298369  
C25      C      0.866953040000     0.684791370000     0.013505230000    -0.107168   
H25      H      0.889595730000     0.676807070000     0.008011990000     0.0432493  
C24      C      0.849772510000     0.714588830000     0.015640170000    -0.0223412  
H24      H      0.860201700000     0.727809490000     0.011802090000     0.029495   
C22      C      0.708154790000     0.800207590000     0.461216960000    -0.102158   
H22      H      0.716409870000     0.777401750000     0.469588760000     0.0426133  
C23      C      0.725897680000     0.816800950000     0.433894640000    -0.0221442  
H23      H      0.747205020000     0.805395080000     0.423603800000     0.0298369  
C25      C      0.684810340000     0.866954970000     0.434734220000    -0.107168   
H25      H      0.676799230000     0.889609590000     0.425594800000     0.0432493  
C24      C      0.714595640000     0.849768590000     0.420005600000    -0.0223412  
H24      H      0.727809220000     0.860195400000     0.400191530000     0.029495   
C22      C      0.030438220000     0.461205630000     0.800215140000    -0.102158   
H22      H      0.036588980000     0.469601390000     0.777402560000     0.0426133  
C23      C      0.023404630000     0.433901110000     0.816790830000    -0.0221442  
H23      H      0.023788660000     0.423609380000     0.805396540000     0.0298369  
C25      C      0.013489200000     0.434754180000     0.866949710000    -0.107168   
H25      H      0.007997360000     0.425600220000     0.889594360000     0.0432493  
C24      C      0.015639620000     0.419997140000     0.849750320000    -0.0223412  
H24      H      0.011786510000     0.400204680000     0.860209080000     0.029495   
C22      C      0.461217240000     0.030435610000     0.708149260000    -0.102158   
H22      H      0.469601790000     0.036595720000     0.716401120000     0.0426133  
C23      C      0.433898270000     0.023410380000     0.725900360000    -0.0221442  
H23      H      0.423603280000     0.023795870000     0.747201690000     0.0298369  
C25      C      0.434742100000     0.013496330000     0.684808950000    -0.107168   
H25      H      0.425591050000     0.008002580000     0.676796960000     0.0432493  
C24      C      0.420006500000     0.015642290000     0.714602020000    -0.0223412  
H24      H      0.400205530000     0.011809900000     0.727795420000     0.029495   
C22      C      0.030435100000     0.800219380000     0.708149260000    -0.102158   
H22      H      0.036598310000     0.777408290000     0.716401120000     0.0426133  
C23      C      0.023392580000     0.816805350000     0.725900360000    -0.0221442  
H23      H      0.023787670000     0.805407850000     0.747201690000     0.0298369  
C25      C      0.013494560000     0.866959620000     0.684808950000    -0.107168   
H25      H      0.008001730000     0.889600290000     0.676796960000     0.0432493  
C24      C      0.015635030000     0.849768840000     0.714602020000    -0.0223412  
H24      H      0.011790700000     0.860207190000     0.727795420000     0.029495   
C22      C      0.461213330000     0.708150690000     0.800215140000    -0.102158   
H22      H      0.469597720000     0.716388130000     0.777402560000     0.0426133  
C23      C      0.433906520000     0.725897420000     0.816790830000    -0.0221442  
H23      H      0.423605180000     0.747200360000     0.805396540000     0.0298369  
C25      C      0.434743560000     0.684797650000     0.866949710000    -0.107168   
H25      H      0.425599990000     0.676797110000     0.889594360000     0.0432493  
C24      C      0.420003320000     0.714594290000     0.849750320000    -0.0223412  
H24      H      0.400200180000     0.727798710000     0.860209080000     0.029495   
C22      C      0.800214800000     0.030423820000     0.461216960000    -0.102158   
H22      H      0.777403120000     0.036611800000     0.469588760000     0.0426133  
C23      C      0.816797290000     0.023405980000     0.433894640000    -0.0221442  
H23      H      0.805388450000     0.023805710000     0.423603800000     0.0298369  
C25      C      0.866970280000     0.013491670000     0.434734220000    -0.107168   
H25      H      0.889596220000     0.008011880000     0.425594800000     0.0432493  
C24      C      0.849756080000     0.015642050000     0.420005600000    -0.0223412  
H24      H      0.860214060000     0.011798110000     0.400191530000     0.029495   
C22      C      0.708131730000     0.461217580000     0.030440750000    -0.102158   
H22      H      0.716395540000     0.469588630000     0.036605660000     0.0426133  
C23      C      0.725906290000     0.433896100000     0.023388280000    -0.0221442  
H23      H      0.747202070000     0.423605540000     0.023796080000     0.0298369  
C25      C      0.684786280000     0.434747910000     0.013505230000    -0.107168   
H25      H      0.676796740000     0.425587570000     0.008011990000     0.0432493  
C24      C      0.714600260000     0.419991670000     0.015640170000    -0.0223412  
H24      H      0.727809330000     0.400192840000     0.011802090000     0.029495   
H21      H      0.697905580000     0.030295320000     0.803693390000     0.0076031  
H26      H      0.677304430000     0.014495930000     0.863711330000     0.00403276 
C22      C      0.800217670000     0.461204230000     0.708149260000    -0.102158   
H22      H      0.777398460000     0.469603340000     0.716401120000     0.0426133  
C23      C      0.816808460000     0.433892370000     0.725900360000    -0.0221442  
H23      H      0.805407040000     0.423603060000     0.747201690000     0.0298369  
C25      C      0.866954070000     0.434743570000     0.684808950000    -0.107168   
H25      H      0.889590360000     0.425608640000     0.676796960000     0.0432493  
C24      C      0.849756120000     0.419995320000     0.714602020000    -0.0223412  
H24      H      0.860208030000     0.400195970000     0.727795420000     0.029495   
H21      H      0.468099870000     0.803695740000     0.030296820000     0.0076031  
H26      H      0.444515220000     0.863696030000     0.014488740000     0.00403276 
H21      H      0.030296800000     0.697904400000     0.468101510000     0.0076031  
H26      H      0.014502570000     0.677298800000     0.444497330000     0.00403276 
C22      C      0.199776160000     0.291856930000     0.538794090000    -0.102158   
H22      H      0.222598110000     0.283596260000     0.530398300000     0.0426133  
C23      C      0.183197280000     0.274095530000     0.566092420000    -0.0221442  
H23      H      0.194607360000     0.252790540000     0.576407250000     0.0298369  
C25      C      0.133040620000     0.315197430000     0.565252840000    -0.107168   
H25      H      0.110401680000     0.323210220000     0.574392260000     0.0432493  
C24      C      0.150237460000     0.285402190000     0.580005450000    -0.0223412  
H24      H      0.139793790000     0.272201600000     0.599795540000     0.029495   
C22      C      0.291859710000     0.199784310000     0.969570300000    -0.102158   
H22      H      0.283592660000     0.222600850000     0.963405390000     0.0426133  
C23      C      0.274097350000     0.183193350000     0.976598780000    -0.0221442  
H23      H      0.252815470000     0.194592090000     0.976190980000     0.0298369  
C25      C      0.315201990000     0.133030470000     0.986505820000    -0.107168   
H25      H      0.323206310000     0.110392590000     0.991999060000     0.0432493  
C24      C      0.285400670000     0.150229240000     0.984370890000    -0.0223412  
H24      H      0.272209560000     0.139790370000     0.988208960000     0.029495   
C22      C      0.969568410000     0.538790200000     0.291861790000    -0.102158   
H22      H      0.963400180000     0.530391090000     0.283609930000     0.0426133  
C23      C      0.976598460000     0.566102050000     0.274110690000    -0.0221442  
H23      H      0.976209050000     0.576391370000     0.252809360000     0.0298369  
C25      C      0.986503860000     0.565250850000     0.315202100000    -0.107168   
H25      H      0.992001220000     0.574393780000     0.323190100000     0.0432493  
C24      C      0.984350730000     0.579999110000     0.285409030000    -0.0223412  
H24      H      0.988204680000     0.599806450000     0.272191650000     0.029495   
C22      C      0.538801980000     0.969557420000     0.199795910000    -0.102158   
H22      H      0.530395730000     0.963400650000     0.222608490000     0.0426133  
C23      C      0.566101600000     0.976605920000     0.183196230000    -0.0221442  
H23      H      0.576413280000     0.976200240000     0.194590520000     0.0298369  
C25      C      0.565259530000     0.986495490000     0.133037360000    -0.107168   
H25      H      0.574393470000     0.992008260000     0.110392700000     0.0432493  
C24      C      0.579997830000     0.984358320000     0.150236740000    -0.0223412  
H24      H      0.599806240000     0.988198430000     0.139801970000     0.029495   
C22      C      0.969576600000     0.199786840000     0.538794090000    -0.102158   
H22      H      0.963405640000     0.222600670000     0.530398300000     0.0426133  
C23      C      0.976598540000     0.183201470000     0.566092420000    -0.0221442  
H23      H      0.976201160000     0.194599350000     0.576407250000     0.0298369  
C25      C      0.986504790000     0.133047460000     0.565252840000    -0.107168   
H25      H      0.992008880000     0.110392830000     0.574392260000     0.0432493  
C24      C      0.984355780000     0.150248450000     0.580005450000    -0.0223412  
H24      H      0.988201410000     0.139807020000     0.599795540000     0.029495   
C22      C      0.538793650000     0.291854400000     0.969570300000    -0.102158   
H22      H      0.530394960000     0.283596440000     0.963405390000     0.0426133  
C23      C      0.566088040000     0.274110020000     0.976598780000    -0.0221442  
H23      H      0.576395590000     0.252805900000     0.976190980000     0.0298369  
C25      C      0.565246910000     0.315203050000     0.986505820000    -0.107168   
H25      H      0.574400750000     0.323209970000     0.991999060000     0.0432493  
C24      C      0.579998770000     0.285405600000     0.984370890000    -0.0223412  
H24      H      0.599799220000     0.272207560000     0.988208960000     0.029495   
C22      C      0.199799360000     0.969558820000     0.291861790000    -0.102158   
H22      H      0.222595890000     0.963398700000     0.283609930000     0.0426133  
C23      C      0.183194970000     0.976606660000     0.274110690000    -0.0221442  
H23      H      0.194598100000     0.976198560000     0.252809360000     0.0298369  
C25      C      0.133044640000     0.986498100000     0.315202100000    -0.107168   
H25      H      0.110395850000     0.991999840000     0.323190100000     0.0432493  
C24      C      0.150248080000     0.984352140000     0.285409030000    -0.0223412  
H24      H      0.139816100000     0.988192530000     0.272191650000     0.029495   
C22      C      0.291856250000     0.538788800000     0.199795910000    -0.102158   
H22      H      0.283590190000     0.530393040000     0.222608490000     0.0426133  
C23      C      0.274101830000     0.566101320000     0.183196230000    -0.0221442  
H23      H      0.252799840000     0.576393040000     0.194590520000     0.0298369  
C25      C      0.315187040000     0.565270860000     0.133037360000    -0.107168   
H25      H      0.323197200000     0.574402200000     0.110392700000     0.0432493  
C24      C      0.285392340000     0.580005290000     0.150236740000    -0.0223412  
H24      H      0.272197540000     0.599789740000     0.139801970000     0.029495   
C22      C      0.291852830000     0.969570610000     0.538794090000    -0.102158   
H22      H      0.283608940000     0.963390620000     0.530398300000     0.0426133  
C23      C      0.274103170000     0.976596440000     0.566092420000    -0.0221442  
H23      H      0.252795220000     0.976188720000     0.576407250000     0.0298369  
C25      C      0.315201430000     0.986510750000     0.565252840000    -0.107168   
H25      H      0.323196850000     0.992013160000     0.574392260000     0.0432493  
C24      C      0.285400990000     0.984352380000     0.580005450000    -0.0223412  
H24      H      0.272208950000     0.988204320000     0.599795540000     0.029495   
C22      C      0.199776020000     0.538799460000     0.969570300000    -0.102158   
H22      H      0.222587090000     0.530405800000     0.963405390000     0.0426133  
C23      C      0.183195930000     0.566106330000     0.976598780000    -0.0221442  
H23      H      0.194608950000     0.576396880000     0.976190980000     0.0298369  
C25      C      0.133025380000     0.565269140000     0.986505820000    -0.107168   
H25      H      0.110393560000     0.574406860000     0.991999060000     0.0432493  
C24      C      0.150229360000     0.580002750000     0.984370890000    -0.0223412  
H24      H      0.139801520000     0.599801590000     0.988208960000     0.029495   
C22      C      0.538801000000     0.199775050000     0.291861790000    -0.102158   
H22      H      0.530404980000     0.222586140000     0.283609930000     0.0426133  
C23      C      0.566095560000     0.183189070000     0.274110690000    -0.0221442  
H23      H      0.576394480000     0.194586570000     0.252809360000     0.0298369  
C25      C      0.565260390000     0.133034800000     0.315202100000    -0.107168   
H25      H      0.574404240000     0.110402130000     0.323190100000     0.0432493  
C24      C      0.579991840000     0.150248210000     0.285409030000    -0.0223412  
H24      H      0.599798560000     0.139795230000     0.272191650000     0.029495   
C22      C      0.969576420000     0.291843730000     0.199795910000    -0.102158   
H22      H      0.963385680000     0.283606290000     0.222608490000     0.0426133  
C23      C      0.976600020000     0.274105010000     0.183196230000    -0.0221442  
H23      H      0.976207350000     0.252802060000     0.194590520000     0.0298369  
C25      C      0.986496170000     0.315204780000     0.133037360000    -0.107168   
H25      H      0.991996720000     0.323205320000     0.110392700000     0.0432493  
C24      C      0.984353190000     0.285408130000     0.150236740000    -0.0223412  
H24      H      0.988205240000     0.272195720000     0.139801970000     0.029495   


