data_Dcc_53.948_vmd

_audit_creation_method RASPA-1.0
_audit_creation_date 2022-10-17
_audit_author_name 'Shivam Parashar'

_cell_length_a    70.948
_cell_length_b    70.948
_cell_length_c    34.032
_cell_angle_alpha 90
_cell_angle_beta  90
_cell_angle_gamma 90
_cell_volume      171304

_symmetry_cell_setting          triclinic
_symmetry_space_group_name_Hall 'P 1'
_symmetry_space_group_name_H-M  'P 1'
_symmetry_Int_Tables_number     1

_symmetry_equiv_pos_as_xyz 'x,y,z'

loop_
_atom_site_label
_atom_site_type_symbol
_atom_site_fract_x
_atom_site_fract_y
_atom_site_fract_z
_atom_site_charge
O        O      0.880200000000     0.500000000000     0.000000000000     0          
O        O      0.879800000000     0.517310000000     0.020830000000     0          
O        O      0.879800000000     0.517310000000     0.062500000000     0          
O        O      0.878620000000     0.534570000000     0.083330000000     0          
O        O      0.878620000000     0.534570000000     0.000000000000     0          
O        O      0.876660000000     0.551770000000     0.020830000000     0          
O        O      0.876660000000     0.551770000000     0.062500000000     0          
O        O      0.873910000000     0.568850000000     0.083330000000     0          
O        O      0.873910000000     0.568850000000     0.000000000000     0          
O        O      0.870390000000     0.585810000000     0.020830000000     0          
O        O      0.870390000000     0.585810000000     0.062500000000     0          
O        O      0.866100000000     0.602570000000     0.083330000000     0          
O        O      0.866100000000     0.602570000000     0.000000000000     0          
O        O      0.861040000000     0.619130000000     0.020830000000     0          
O        O      0.861040000000     0.619130000000     0.062500000000     0          
O        O      0.855250000000     0.635440000000     0.083330000000     0          
O        O      0.855250000000     0.635440000000     0.000000000000     0          
O        O      0.848720000000     0.651460000000     0.020830000000     0          
O        O      0.848720000000     0.651460000000     0.062500000000     0          
O        O      0.841460000000     0.667180000000     0.083330000000     0          
O        O      0.841460000000     0.667180000000     0.000000000000     0          
O        O      0.833500000000     0.682560000000     0.020830000000     0          
O        O      0.833500000000     0.682560000000     0.062500000000     0          
O        O      0.824840000000     0.697540000000     0.083330000000     0          
O        O      0.824840000000     0.697540000000     0.000000000000     0          
O        O      0.815510000000     0.712130000000     0.020830000000     0          
O        O      0.815510000000     0.712130000000     0.062500000000     0          
O        O      0.805530000000     0.726270000000     0.083330000000     0          
O        O      0.805530000000     0.726270000000     0.000000000000     0          
O        O      0.794920000000     0.739940000000     0.020830000000     0          
O        O      0.794920000000     0.739940000000     0.062500000000     0          
O        O      0.783690000000     0.753120000000     0.083330000000     0          
O        O      0.783690000000     0.753120000000     0.000000000000     0          
O        O      0.771880000000     0.765760000000     0.020830000000     0          
O        O      0.771880000000     0.765760000000     0.062500000000     0          
O        O      0.759500000000     0.777850000000     0.083330000000     0          
O        O      0.759500000000     0.777850000000     0.000000000000     0          
O        O      0.746590000000     0.789380000000     0.020830000000     0          
O        O      0.746590000000     0.789380000000     0.062500000000     0          
O        O      0.733160000000     0.800310000000     0.083330000000     0          
O        O      0.733160000000     0.800310000000     0.000000000000     0          
O        O      0.719250000000     0.810610000000     0.020830000000     0          
O        O      0.719250000000     0.810610000000     0.062500000000     0          
O        O      0.704880000000     0.820260000000     0.083330000000     0          
O        O      0.704880000000     0.820260000000     0.000000000000     0          
O        O      0.690100000000     0.829260000000     0.020830000000     0          
O        O      0.690100000000     0.829260000000     0.062500000000     0          
O        O      0.674920000000     0.837570000000     0.083330000000     0          
O        O      0.674920000000     0.837570000000     0.000000000000     0          
O        O      0.659370000000     0.845180000000     0.020830000000     0          
O        O      0.659370000000     0.845180000000     0.062500000000     0          
O        O      0.643490000000     0.852080000000     0.083330000000     0          
O        O      0.643490000000     0.852080000000     0.000000000000     0          
O        O      0.627320000000     0.858240000000     0.020830000000     0          
O        O      0.627320000000     0.858240000000     0.062500000000     0          
O        O      0.610880000000     0.863660000000     0.083330000000     0          
O        O      0.610880000000     0.863660000000     0.000000000000     0          
O        O      0.594210000000     0.868340000000     0.020830000000     0          
O        O      0.594210000000     0.868340000000     0.062500000000     0          
O        O      0.577350000000     0.872250000000     0.083330000000     0          
O        O      0.577350000000     0.872250000000     0.000000000000     0          
O        O      0.560330000000     0.875370000000     0.020830000000     0          
O        O      0.560330000000     0.875370000000     0.062500000000     0          
O        O      0.543190000000     0.877730000000     0.083330000000     0          
O        O      0.543190000000     0.877730000000     0.000000000000     0          
O        O      0.525950000000     0.879310000000     0.020830000000     0          
O        O      0.525950000000     0.879310000000     0.062500000000     0          
O        O      0.508650000000     0.880100000000     0.083330000000     0          
O        O      0.508650000000     0.880100000000     0.000000000000     0          
O        O      0.491350000000     0.880100000000     0.020830000000     0          
O        O      0.491350000000     0.880100000000     0.062500000000     0          
O        O      0.474050000000     0.879310000000     0.083330000000     0          
O        O      0.474050000000     0.879310000000     0.000000000000     0          
O        O      0.456810000000     0.877730000000     0.020830000000     0          
O        O      0.456810000000     0.877730000000     0.062500000000     0          
O        O      0.439670000000     0.875370000000     0.083330000000     0          
O        O      0.439670000000     0.875370000000     0.000000000000     0          
O        O      0.422650000000     0.872250000000     0.020830000000     0          
O        O      0.422650000000     0.872250000000     0.062500000000     0          
O        O      0.405790000000     0.868340000000     0.083330000000     0          
O        O      0.405790000000     0.868340000000     0.000000000000     0          
O        O      0.389120000000     0.863660000000     0.020830000000     0          
O        O      0.389120000000     0.863660000000     0.062500000000     0          
O        O      0.372680000000     0.858240000000     0.083330000000     0          
O        O      0.372680000000     0.858240000000     0.000000000000     0          
O        O      0.356510000000     0.852080000000     0.020830000000     0          
O        O      0.356510000000     0.852080000000     0.062500000000     0          
O        O      0.340630000000     0.845180000000     0.083330000000     0          
O        O      0.340630000000     0.845180000000     0.000000000000     0          
O        O      0.325080000000     0.837570000000     0.020830000000     0          
O        O      0.325080000000     0.837570000000     0.062500000000     0          
O        O      0.309900000000     0.829260000000     0.083330000000     0          
O        O      0.309900000000     0.829260000000     0.000000000000     0          
O        O      0.295120000000     0.820260000000     0.020830000000     0          
O        O      0.295120000000     0.820260000000     0.062500000000     0          
O        O      0.280750000000     0.810610000000     0.083330000000     0          
O        O      0.280750000000     0.810610000000     0.000000000000     0          
O        O      0.266840000000     0.800310000000     0.020830000000     0          
O        O      0.266840000000     0.800310000000     0.062500000000     0          
O        O      0.253410000000     0.789380000000     0.083330000000     0          
O        O      0.253410000000     0.789380000000     0.000000000000     0          
O        O      0.240500000000     0.777850000000     0.020830000000     0          
O        O      0.240500000000     0.777850000000     0.062500000000     0          
O        O      0.228120000000     0.765760000000     0.083330000000     0          
O        O      0.228120000000     0.765760000000     0.000000000000     0          
O        O      0.216310000000     0.753120000000     0.020830000000     0          
O        O      0.216310000000     0.753120000000     0.062500000000     0          
O        O      0.205080000000     0.739940000000     0.083330000000     0          
O        O      0.205080000000     0.739940000000     0.000000000000     0          
O        O      0.194470000000     0.726270000000     0.020830000000     0          
O        O      0.194470000000     0.726270000000     0.062500000000     0          
O        O      0.184490000000     0.712130000000     0.083330000000     0          
O        O      0.184490000000     0.712130000000     0.000000000000     0          
O        O      0.175160000000     0.697540000000     0.020830000000     0          
O        O      0.175160000000     0.697540000000     0.062500000000     0          
O        O      0.166500000000     0.682560000000     0.083330000000     0          
O        O      0.166500000000     0.682560000000     0.000000000000     0          
O        O      0.158540000000     0.667180000000     0.020830000000     0          
O        O      0.158540000000     0.667180000000     0.062500000000     0          
O        O      0.151280000000     0.651460000000     0.083330000000     0          
O        O      0.151280000000     0.651460000000     0.000000000000     0          
O        O      0.144750000000     0.635440000000     0.020830000000     0          
O        O      0.144750000000     0.635440000000     0.062500000000     0          
O        O      0.138960000000     0.619130000000     0.083330000000     0          
O        O      0.138960000000     0.619130000000     0.000000000000     0          
O        O      0.133900000000     0.602570000000     0.020830000000     0          
O        O      0.133900000000     0.602570000000     0.062500000000     0          
O        O      0.129610000000     0.585810000000     0.083330000000     0          
O        O      0.129610000000     0.585810000000     0.000000000000     0          
O        O      0.126090000000     0.568850000000     0.020830000000     0          
O        O      0.126090000000     0.568850000000     0.062500000000     0          
O        O      0.123340000000     0.551770000000     0.083330000000     0          
O        O      0.123340000000     0.551770000000     0.000000000000     0          
O        O      0.121380000000     0.534570000000     0.020830000000     0          
O        O      0.121380000000     0.534570000000     0.062500000000     0          
O        O      0.120200000000     0.517310000000     0.083330000000     0          
O        O      0.120200000000     0.517310000000     0.000000000000     0          
O        O      0.119800000000     0.500000000000     0.020830000000     0          
O        O      0.119800000000     0.500000000000     0.062500000000     0          
O        O      0.120200000000     0.482690000000     0.083330000000     0          
O        O      0.120200000000     0.482690000000     0.000000000000     0          
O        O      0.121380000000     0.465430000000     0.020830000000     0          
O        O      0.121380000000     0.465430000000     0.062500000000     0          
O        O      0.123340000000     0.448230000000     0.083330000000     0          
O        O      0.123340000000     0.448230000000     0.000000000000     0          
O        O      0.126090000000     0.431150000000     0.020830000000     0          
O        O      0.126090000000     0.431150000000     0.062500000000     0          
O        O      0.129610000000     0.414190000000     0.083330000000     0          
O        O      0.129610000000     0.414190000000     0.000000000000     0          
O        O      0.133900000000     0.397430000000     0.020830000000     0          
O        O      0.133900000000     0.397430000000     0.062500000000     0          
O        O      0.138960000000     0.380870000000     0.083330000000     0          
O        O      0.138960000000     0.380870000000     0.000000000000     0          
O        O      0.144750000000     0.364560000000     0.020830000000     0          
O        O      0.144750000000     0.364560000000     0.062500000000     0          
O        O      0.151280000000     0.348540000000     0.083330000000     0          
O        O      0.151280000000     0.348540000000     0.000000000000     0          
O        O      0.158540000000     0.332820000000     0.020830000000     0          
O        O      0.158540000000     0.332820000000     0.062500000000     0          
O        O      0.166500000000     0.317440000000     0.083330000000     0          
O        O      0.166500000000     0.317440000000     0.000000000000     0          
O        O      0.175160000000     0.302460000000     0.020830000000     0          
O        O      0.175160000000     0.302460000000     0.062500000000     0          
O        O      0.184490000000     0.287870000000     0.083330000000     0          
O        O      0.184490000000     0.287870000000     0.000000000000     0          
O        O      0.194470000000     0.273730000000     0.020830000000     0          
O        O      0.194470000000     0.273730000000     0.062500000000     0          
O        O      0.205080000000     0.260060000000     0.083330000000     0          
O        O      0.205080000000     0.260060000000     0.000000000000     0          
O        O      0.216310000000     0.246880000000     0.020830000000     0          
O        O      0.216310000000     0.246880000000     0.062500000000     0          
O        O      0.228120000000     0.234240000000     0.083330000000     0          
O        O      0.228120000000     0.234240000000     0.000000000000     0          
O        O      0.240500000000     0.222150000000     0.020830000000     0          
O        O      0.240500000000     0.222150000000     0.062500000000     0          
O        O      0.253410000000     0.210620000000     0.083330000000     0          
O        O      0.253410000000     0.210620000000     0.000000000000     0          
O        O      0.266840000000     0.199690000000     0.020830000000     0          
O        O      0.266840000000     0.199690000000     0.062500000000     0          
O        O      0.280750000000     0.189390000000     0.083330000000     0          
O        O      0.280750000000     0.189390000000     0.000000000000     0          
O        O      0.295120000000     0.179740000000     0.020830000000     0          
O        O      0.295120000000     0.179740000000     0.062500000000     0          
O        O      0.309900000000     0.170740000000     0.083330000000     0          
O        O      0.309900000000     0.170740000000     0.000000000000     0          
O        O      0.325080000000     0.162430000000     0.020830000000     0          
O        O      0.325080000000     0.162430000000     0.062500000000     0          
O        O      0.340630000000     0.154820000000     0.083330000000     0          
O        O      0.340630000000     0.154820000000     0.000000000000     0          
O        O      0.356510000000     0.147920000000     0.020830000000     0          
O        O      0.356510000000     0.147920000000     0.062500000000     0          
O        O      0.372680000000     0.141760000000     0.083330000000     0          
O        O      0.372680000000     0.141760000000     0.000000000000     0          
O        O      0.389120000000     0.136340000000     0.020830000000     0          
O        O      0.389120000000     0.136340000000     0.062500000000     0          
O        O      0.405790000000     0.131660000000     0.083330000000     0          
O        O      0.405790000000     0.131660000000     0.000000000000     0          
O        O      0.422650000000     0.127750000000     0.020830000000     0          
O        O      0.422650000000     0.127750000000     0.062500000000     0          
O        O      0.439670000000     0.124630000000     0.083330000000     0          
O        O      0.439670000000     0.124630000000     0.000000000000     0          
O        O      0.456810000000     0.122270000000     0.020830000000     0          
O        O      0.456810000000     0.122270000000     0.062500000000     0          
O        O      0.474050000000     0.120690000000     0.083330000000     0          
O        O      0.474050000000     0.120690000000     0.000000000000     0          
O        O      0.491350000000     0.119900000000     0.020830000000     0          
O        O      0.491350000000     0.119900000000     0.062500000000     0          
O        O      0.508650000000     0.119900000000     0.083330000000     0          
O        O      0.508650000000     0.119900000000     0.000000000000     0          
O        O      0.525950000000     0.120690000000     0.020830000000     0          
O        O      0.525950000000     0.120690000000     0.062500000000     0          
O        O      0.543190000000     0.122270000000     0.083330000000     0          
O        O      0.543190000000     0.122270000000     0.000000000000     0          
O        O      0.560330000000     0.124630000000     0.020830000000     0          
O        O      0.560330000000     0.124630000000     0.062500000000     0          
O        O      0.577350000000     0.127750000000     0.083330000000     0          
O        O      0.577350000000     0.127750000000     0.000000000000     0          
O        O      0.594210000000     0.131660000000     0.020830000000     0          
O        O      0.594210000000     0.131660000000     0.062500000000     0          
O        O      0.610880000000     0.136340000000     0.083330000000     0          
O        O      0.610880000000     0.136340000000     0.000000000000     0          
O        O      0.627320000000     0.141760000000     0.020830000000     0          
O        O      0.627320000000     0.141760000000     0.062500000000     0          
O        O      0.643490000000     0.147920000000     0.083330000000     0          
O        O      0.643490000000     0.147920000000     0.000000000000     0          
O        O      0.659370000000     0.154820000000     0.020830000000     0          
O        O      0.659370000000     0.154820000000     0.062500000000     0          
O        O      0.674920000000     0.162430000000     0.083330000000     0          
O        O      0.674920000000     0.162430000000     0.000000000000     0          
O        O      0.690100000000     0.170740000000     0.020830000000     0          
O        O      0.690100000000     0.170740000000     0.062500000000     0          
O        O      0.704880000000     0.179740000000     0.083330000000     0          
O        O      0.704880000000     0.179740000000     0.000000000000     0          
O        O      0.719250000000     0.189390000000     0.020830000000     0          
O        O      0.719250000000     0.189390000000     0.062500000000     0          
O        O      0.733160000000     0.199690000000     0.083330000000     0          
O        O      0.733160000000     0.199690000000     0.000000000000     0          
O        O      0.746590000000     0.210620000000     0.020830000000     0          
O        O      0.746590000000     0.210620000000     0.062500000000     0          
O        O      0.759500000000     0.222150000000     0.083330000000     0          
O        O      0.759500000000     0.222150000000     0.000000000000     0          
O        O      0.771880000000     0.234240000000     0.020830000000     0          
O        O      0.771880000000     0.234240000000     0.062500000000     0          
O        O      0.783690000000     0.246880000000     0.083330000000     0          
O        O      0.783690000000     0.246880000000     0.000000000000     0          
O        O      0.794920000000     0.260060000000     0.020830000000     0          
O        O      0.794920000000     0.260060000000     0.062500000000     0          
O        O      0.805530000000     0.273730000000     0.083330000000     0          
O        O      0.805530000000     0.273730000000     0.000000000000     0          
O        O      0.815510000000     0.287870000000     0.020830000000     0          
O        O      0.815510000000     0.287870000000     0.062500000000     0          
O        O      0.824840000000     0.302460000000     0.083330000000     0          
O        O      0.824840000000     0.302460000000     0.000000000000     0          
O        O      0.833500000000     0.317440000000     0.020830000000     0          
O        O      0.833500000000     0.317440000000     0.062500000000     0          
O        O      0.841460000000     0.332820000000     0.083330000000     0          
O        O      0.841460000000     0.332820000000     0.000000000000     0          
O        O      0.848720000000     0.348540000000     0.020830000000     0          
O        O      0.848720000000     0.348540000000     0.062500000000     0          
O        O      0.855250000000     0.364560000000     0.083330000000     0          
O        O      0.855250000000     0.364560000000     0.000000000000     0          
O        O      0.861040000000     0.380870000000     0.020830000000     0          
O        O      0.861040000000     0.380870000000     0.062500000000     0          
O        O      0.866100000000     0.397430000000     0.083330000000     0          
O        O      0.866100000000     0.397430000000     0.000000000000     0          
O        O      0.870390000000     0.414190000000     0.020830000000     0          
O        O      0.870390000000     0.414190000000     0.062500000000     0          
O        O      0.873910000000     0.431150000000     0.083330000000     0          
O        O      0.873910000000     0.431150000000     0.000000000000     0          
O        O      0.876660000000     0.448230000000     0.020830000000     0          
O        O      0.876660000000     0.448230000000     0.062500000000     0          
O        O      0.878620000000     0.465430000000     0.083330000000     0          
O        O      0.878620000000     0.465430000000     0.000000000000     0          
O        O      0.879800000000     0.482690000000     0.020830000000     0          
O        O      0.879800000000     0.482690000000     0.062500000000     0          
O        O      0.880200000000     0.500000000000     0.083330000000     0          
O        O      0.880200000000     0.500000000000     0.125000000000     0          
O        O      0.879800000000     0.517310000000     0.145830000000     0          
O        O      0.879800000000     0.517310000000     0.187500000000     0          
O        O      0.878620000000     0.534570000000     0.208330000000     0          
O        O      0.878620000000     0.534570000000     0.125000000000     0          
O        O      0.876660000000     0.551770000000     0.145830000000     0          
O        O      0.876660000000     0.551770000000     0.187500000000     0          
O        O      0.873910000000     0.568850000000     0.208330000000     0          
O        O      0.873910000000     0.568850000000     0.125000000000     0          
O        O      0.870390000000     0.585810000000     0.145830000000     0          
O        O      0.870390000000     0.585810000000     0.187500000000     0          
O        O      0.866100000000     0.602570000000     0.208330000000     0          
O        O      0.866100000000     0.602570000000     0.125000000000     0          
O        O      0.861040000000     0.619130000000     0.145830000000     0          
O        O      0.861040000000     0.619130000000     0.187500000000     0          
O        O      0.855250000000     0.635440000000     0.208330000000     0          
O        O      0.855250000000     0.635440000000     0.125000000000     0          
O        O      0.848720000000     0.651460000000     0.145830000000     0          
O        O      0.848720000000     0.651460000000     0.187500000000     0          
O        O      0.841460000000     0.667180000000     0.208330000000     0          
O        O      0.841460000000     0.667180000000     0.125000000000     0          
O        O      0.833500000000     0.682560000000     0.145830000000     0          
O        O      0.833500000000     0.682560000000     0.187500000000     0          
O        O      0.824840000000     0.697540000000     0.208330000000     0          
O        O      0.824840000000     0.697540000000     0.125000000000     0          
O        O      0.815510000000     0.712130000000     0.145830000000     0          
O        O      0.815510000000     0.712130000000     0.187500000000     0          
O        O      0.805530000000     0.726270000000     0.208330000000     0          
O        O      0.805530000000     0.726270000000     0.125000000000     0          
O        O      0.794920000000     0.739940000000     0.145830000000     0          
O        O      0.794920000000     0.739940000000     0.187500000000     0          
O        O      0.783690000000     0.753120000000     0.208330000000     0          
O        O      0.783690000000     0.753120000000     0.125000000000     0          
O        O      0.771880000000     0.765760000000     0.145830000000     0          
O        O      0.771880000000     0.765760000000     0.187500000000     0          
O        O      0.759500000000     0.777850000000     0.208330000000     0          
O        O      0.759500000000     0.777850000000     0.125000000000     0          
O        O      0.746590000000     0.789380000000     0.145830000000     0          
O        O      0.746590000000     0.789380000000     0.187500000000     0          
O        O      0.733160000000     0.800310000000     0.208330000000     0          
O        O      0.733160000000     0.800310000000     0.125000000000     0          
O        O      0.719250000000     0.810610000000     0.145830000000     0          
O        O      0.719250000000     0.810610000000     0.187500000000     0          
O        O      0.704880000000     0.820260000000     0.208330000000     0          
O        O      0.704880000000     0.820260000000     0.125000000000     0          
O        O      0.690100000000     0.829260000000     0.145830000000     0          
O        O      0.690100000000     0.829260000000     0.187500000000     0          
O        O      0.674920000000     0.837570000000     0.208330000000     0          
O        O      0.674920000000     0.837570000000     0.125000000000     0          
O        O      0.659370000000     0.845180000000     0.145830000000     0          
O        O      0.659370000000     0.845180000000     0.187500000000     0          
O        O      0.643490000000     0.852080000000     0.208330000000     0          
O        O      0.643490000000     0.852080000000     0.125000000000     0          
O        O      0.627320000000     0.858240000000     0.145830000000     0          
O        O      0.627320000000     0.858240000000     0.187500000000     0          
O        O      0.610880000000     0.863660000000     0.208330000000     0          
O        O      0.610880000000     0.863660000000     0.125000000000     0          
O        O      0.594210000000     0.868340000000     0.145830000000     0          
O        O      0.594210000000     0.868340000000     0.187500000000     0          
O        O      0.577350000000     0.872250000000     0.208330000000     0          
O        O      0.577350000000     0.872250000000     0.125000000000     0          
O        O      0.560330000000     0.875370000000     0.145830000000     0          
O        O      0.560330000000     0.875370000000     0.187500000000     0          
O        O      0.543190000000     0.877730000000     0.208330000000     0          
O        O      0.543190000000     0.877730000000     0.125000000000     0          
O        O      0.525950000000     0.879310000000     0.145830000000     0          
O        O      0.525950000000     0.879310000000     0.187500000000     0          
O        O      0.508650000000     0.880100000000     0.208330000000     0          
O        O      0.508650000000     0.880100000000     0.125000000000     0          
O        O      0.491350000000     0.880100000000     0.145830000000     0          
O        O      0.491350000000     0.880100000000     0.187500000000     0          
O        O      0.474050000000     0.879310000000     0.208330000000     0          
O        O      0.474050000000     0.879310000000     0.125000000000     0          
O        O      0.456810000000     0.877730000000     0.145830000000     0          
O        O      0.456810000000     0.877730000000     0.187500000000     0          
O        O      0.439670000000     0.875370000000     0.208330000000     0          
O        O      0.439670000000     0.875370000000     0.125000000000     0          
O        O      0.422650000000     0.872250000000     0.145830000000     0          
O        O      0.422650000000     0.872250000000     0.187500000000     0          
O        O      0.405790000000     0.868340000000     0.208330000000     0          
O        O      0.405790000000     0.868340000000     0.125000000000     0          
O        O      0.389120000000     0.863660000000     0.145830000000     0          
O        O      0.389120000000     0.863660000000     0.187500000000     0          
O        O      0.372680000000     0.858240000000     0.208330000000     0          
O        O      0.372680000000     0.858240000000     0.125000000000     0          
O        O      0.356510000000     0.852080000000     0.145830000000     0          
O        O      0.356510000000     0.852080000000     0.187500000000     0          
O        O      0.340630000000     0.845180000000     0.208330000000     0          
O        O      0.340630000000     0.845180000000     0.125000000000     0          
O        O      0.325080000000     0.837570000000     0.145830000000     0          
O        O      0.325080000000     0.837570000000     0.187500000000     0          
O        O      0.309900000000     0.829260000000     0.208330000000     0          
O        O      0.309900000000     0.829260000000     0.125000000000     0          
O        O      0.295120000000     0.820260000000     0.145830000000     0          
O        O      0.295120000000     0.820260000000     0.187500000000     0          
O        O      0.280750000000     0.810610000000     0.208330000000     0          
O        O      0.280750000000     0.810610000000     0.125000000000     0          
O        O      0.266840000000     0.800310000000     0.145830000000     0          
O        O      0.266840000000     0.800310000000     0.187500000000     0          
O        O      0.253410000000     0.789380000000     0.208330000000     0          
O        O      0.253410000000     0.789380000000     0.125000000000     0          
O        O      0.240500000000     0.777850000000     0.145830000000     0          
O        O      0.240500000000     0.777850000000     0.187500000000     0          
O        O      0.228120000000     0.765760000000     0.208330000000     0          
O        O      0.228120000000     0.765760000000     0.125000000000     0          
O        O      0.216310000000     0.753120000000     0.145830000000     0          
O        O      0.216310000000     0.753120000000     0.187500000000     0          
O        O      0.205080000000     0.739940000000     0.208330000000     0          
O        O      0.205080000000     0.739940000000     0.125000000000     0          
O        O      0.194470000000     0.726270000000     0.145830000000     0          
O        O      0.194470000000     0.726270000000     0.187500000000     0          
O        O      0.184490000000     0.712130000000     0.208330000000     0          
O        O      0.184490000000     0.712130000000     0.125000000000     0          
O        O      0.175160000000     0.697540000000     0.145830000000     0          
O        O      0.175160000000     0.697540000000     0.187500000000     0          
O        O      0.166500000000     0.682560000000     0.208330000000     0          
O        O      0.166500000000     0.682560000000     0.125000000000     0          
O        O      0.158540000000     0.667180000000     0.145830000000     0          
O        O      0.158540000000     0.667180000000     0.187500000000     0          
O        O      0.151280000000     0.651460000000     0.208330000000     0          
O        O      0.151280000000     0.651460000000     0.125000000000     0          
O        O      0.144750000000     0.635440000000     0.145830000000     0          
O        O      0.144750000000     0.635440000000     0.187500000000     0          
O        O      0.138960000000     0.619130000000     0.208330000000     0          
O        O      0.138960000000     0.619130000000     0.125000000000     0          
O        O      0.133900000000     0.602570000000     0.145830000000     0          
O        O      0.133900000000     0.602570000000     0.187500000000     0          
O        O      0.129610000000     0.585810000000     0.208330000000     0          
O        O      0.129610000000     0.585810000000     0.125000000000     0          
O        O      0.126090000000     0.568850000000     0.145830000000     0          
O        O      0.126090000000     0.568850000000     0.187500000000     0          
O        O      0.123340000000     0.551770000000     0.208330000000     0          
O        O      0.123340000000     0.551770000000     0.125000000000     0          
O        O      0.121380000000     0.534570000000     0.145830000000     0          
O        O      0.121380000000     0.534570000000     0.187500000000     0          
O        O      0.120200000000     0.517310000000     0.208330000000     0          
O        O      0.120200000000     0.517310000000     0.125000000000     0          
O        O      0.119800000000     0.500000000000     0.145830000000     0          
O        O      0.119800000000     0.500000000000     0.187500000000     0          
O        O      0.120200000000     0.482690000000     0.208330000000     0          
O        O      0.120200000000     0.482690000000     0.125000000000     0          
O        O      0.121380000000     0.465430000000     0.145830000000     0          
O        O      0.121380000000     0.465430000000     0.187500000000     0          
O        O      0.123340000000     0.448230000000     0.208330000000     0          
O        O      0.123340000000     0.448230000000     0.125000000000     0          
O        O      0.126090000000     0.431150000000     0.145830000000     0          
O        O      0.126090000000     0.431150000000     0.187500000000     0          
O        O      0.129610000000     0.414190000000     0.208330000000     0          
O        O      0.129610000000     0.414190000000     0.125000000000     0          
O        O      0.133900000000     0.397430000000     0.145830000000     0          
O        O      0.133900000000     0.397430000000     0.187500000000     0          
O        O      0.138960000000     0.380870000000     0.208330000000     0          
O        O      0.138960000000     0.380870000000     0.125000000000     0          
O        O      0.144750000000     0.364560000000     0.145830000000     0          
O        O      0.144750000000     0.364560000000     0.187500000000     0          
O        O      0.151280000000     0.348540000000     0.208330000000     0          
O        O      0.151280000000     0.348540000000     0.125000000000     0          
O        O      0.158540000000     0.332820000000     0.145830000000     0          
O        O      0.158540000000     0.332820000000     0.187500000000     0          
O        O      0.166500000000     0.317440000000     0.208330000000     0          
O        O      0.166500000000     0.317440000000     0.125000000000     0          
O        O      0.175160000000     0.302460000000     0.145830000000     0          
O        O      0.175160000000     0.302460000000     0.187500000000     0          
O        O      0.184490000000     0.287870000000     0.208330000000     0          
O        O      0.184490000000     0.287870000000     0.125000000000     0          
O        O      0.194470000000     0.273730000000     0.145830000000     0          
O        O      0.194470000000     0.273730000000     0.187500000000     0          
O        O      0.205080000000     0.260060000000     0.208330000000     0          
O        O      0.205080000000     0.260060000000     0.125000000000     0          
O        O      0.216310000000     0.246880000000     0.145830000000     0          
O        O      0.216310000000     0.246880000000     0.187500000000     0          
O        O      0.228120000000     0.234240000000     0.208330000000     0          
O        O      0.228120000000     0.234240000000     0.125000000000     0          
O        O      0.240500000000     0.222150000000     0.145830000000     0          
O        O      0.240500000000     0.222150000000     0.187500000000     0          
O        O      0.253410000000     0.210620000000     0.208330000000     0          
O        O      0.253410000000     0.210620000000     0.125000000000     0          
O        O      0.266840000000     0.199690000000     0.145830000000     0          
O        O      0.266840000000     0.199690000000     0.187500000000     0          
O        O      0.280750000000     0.189390000000     0.208330000000     0          
O        O      0.280750000000     0.189390000000     0.125000000000     0          
O        O      0.295120000000     0.179740000000     0.145830000000     0          
O        O      0.295120000000     0.179740000000     0.187500000000     0          
O        O      0.309900000000     0.170740000000     0.208330000000     0          
O        O      0.309900000000     0.170740000000     0.125000000000     0          
O        O      0.325080000000     0.162430000000     0.145830000000     0          
O        O      0.325080000000     0.162430000000     0.187500000000     0          
O        O      0.340630000000     0.154820000000     0.208330000000     0          
O        O      0.340630000000     0.154820000000     0.125000000000     0          
O        O      0.356510000000     0.147920000000     0.145830000000     0          
O        O      0.356510000000     0.147920000000     0.187500000000     0          
O        O      0.372680000000     0.141760000000     0.208330000000     0          
O        O      0.372680000000     0.141760000000     0.125000000000     0          
O        O      0.389120000000     0.136340000000     0.145830000000     0          
O        O      0.389120000000     0.136340000000     0.187500000000     0          
O        O      0.405790000000     0.131660000000     0.208330000000     0          
O        O      0.405790000000     0.131660000000     0.125000000000     0          
O        O      0.422650000000     0.127750000000     0.145830000000     0          
O        O      0.422650000000     0.127750000000     0.187500000000     0          
O        O      0.439670000000     0.124630000000     0.208330000000     0          
O        O      0.439670000000     0.124630000000     0.125000000000     0          
O        O      0.456810000000     0.122270000000     0.145830000000     0          
O        O      0.456810000000     0.122270000000     0.187500000000     0          
O        O      0.474050000000     0.120690000000     0.208330000000     0          
O        O      0.474050000000     0.120690000000     0.125000000000     0          
O        O      0.491350000000     0.119900000000     0.145830000000     0          
O        O      0.491350000000     0.119900000000     0.187500000000     0          
O        O      0.508650000000     0.119900000000     0.208330000000     0          
O        O      0.508650000000     0.119900000000     0.125000000000     0          
O        O      0.525950000000     0.120690000000     0.145830000000     0          
O        O      0.525950000000     0.120690000000     0.187500000000     0          
O        O      0.543190000000     0.122270000000     0.208330000000     0          
O        O      0.543190000000     0.122270000000     0.125000000000     0          
O        O      0.560330000000     0.124630000000     0.145830000000     0          
O        O      0.560330000000     0.124630000000     0.187500000000     0          
O        O      0.577350000000     0.127750000000     0.208330000000     0          
O        O      0.577350000000     0.127750000000     0.125000000000     0          
O        O      0.594210000000     0.131660000000     0.145830000000     0          
O        O      0.594210000000     0.131660000000     0.187500000000     0          
O        O      0.610880000000     0.136340000000     0.208330000000     0          
O        O      0.610880000000     0.136340000000     0.125000000000     0          
O        O      0.627320000000     0.141760000000     0.145830000000     0          
O        O      0.627320000000     0.141760000000     0.187500000000     0          
O        O      0.643490000000     0.147920000000     0.208330000000     0          
O        O      0.643490000000     0.147920000000     0.125000000000     0          
O        O      0.659370000000     0.154820000000     0.145830000000     0          
O        O      0.659370000000     0.154820000000     0.187500000000     0          
O        O      0.674920000000     0.162430000000     0.208330000000     0          
O        O      0.674920000000     0.162430000000     0.125000000000     0          
O        O      0.690100000000     0.170740000000     0.145830000000     0          
O        O      0.690100000000     0.170740000000     0.187500000000     0          
O        O      0.704880000000     0.179740000000     0.208330000000     0          
O        O      0.704880000000     0.179740000000     0.125000000000     0          
O        O      0.719250000000     0.189390000000     0.145830000000     0          
O        O      0.719250000000     0.189390000000     0.187500000000     0          
O        O      0.733160000000     0.199690000000     0.208330000000     0          
O        O      0.733160000000     0.199690000000     0.125000000000     0          
O        O      0.746590000000     0.210620000000     0.145830000000     0          
O        O      0.746590000000     0.210620000000     0.187500000000     0          
O        O      0.759500000000     0.222150000000     0.208330000000     0          
O        O      0.759500000000     0.222150000000     0.125000000000     0          
O        O      0.771880000000     0.234240000000     0.145830000000     0          
O        O      0.771880000000     0.234240000000     0.187500000000     0          
O        O      0.783690000000     0.246880000000     0.208330000000     0          
O        O      0.783690000000     0.246880000000     0.125000000000     0          
O        O      0.794920000000     0.260060000000     0.145830000000     0          
O        O      0.794920000000     0.260060000000     0.187500000000     0          
O        O      0.805530000000     0.273730000000     0.208330000000     0          
O        O      0.805530000000     0.273730000000     0.125000000000     0          
O        O      0.815510000000     0.287870000000     0.145830000000     0          
O        O      0.815510000000     0.287870000000     0.187500000000     0          
O        O      0.824840000000     0.302460000000     0.208330000000     0          
O        O      0.824840000000     0.302460000000     0.125000000000     0          
O        O      0.833500000000     0.317440000000     0.145830000000     0          
O        O      0.833500000000     0.317440000000     0.187500000000     0          
O        O      0.841460000000     0.332820000000     0.208330000000     0          
O        O      0.841460000000     0.332820000000     0.125000000000     0          
O        O      0.848720000000     0.348540000000     0.145830000000     0          
O        O      0.848720000000     0.348540000000     0.187500000000     0          
O        O      0.855250000000     0.364560000000     0.208330000000     0          
O        O      0.855250000000     0.364560000000     0.125000000000     0          
O        O      0.861040000000     0.380870000000     0.145830000000     0          
O        O      0.861040000000     0.380870000000     0.187500000000     0          
O        O      0.866100000000     0.397430000000     0.208330000000     0          
O        O      0.866100000000     0.397430000000     0.125000000000     0          
O        O      0.870390000000     0.414190000000     0.145830000000     0          
O        O      0.870390000000     0.414190000000     0.187500000000     0          
O        O      0.873910000000     0.431150000000     0.208330000000     0          
O        O      0.873910000000     0.431150000000     0.125000000000     0          
O        O      0.876660000000     0.448230000000     0.145830000000     0          
O        O      0.876660000000     0.448230000000     0.187500000000     0          
O        O      0.878620000000     0.465430000000     0.208330000000     0          
O        O      0.878620000000     0.465430000000     0.125000000000     0          
O        O      0.879800000000     0.482690000000     0.145830000000     0          
O        O      0.879800000000     0.482690000000     0.187500000000     0          
O        O      0.880200000000     0.500000000000     0.208330000000     0          
O        O      0.880200000000     0.500000000000     0.250000000000     0          
O        O      0.879800000000     0.517310000000     0.270830000000     0          
O        O      0.879800000000     0.517310000000     0.312500000000     0          
O        O      0.878620000000     0.534570000000     0.333330000000     0          
O        O      0.878620000000     0.534570000000     0.250000000000     0          
O        O      0.876660000000     0.551770000000     0.270830000000     0          
O        O      0.876660000000     0.551770000000     0.312500000000     0          
O        O      0.873910000000     0.568850000000     0.333330000000     0          
O        O      0.873910000000     0.568850000000     0.250000000000     0          
O        O      0.870390000000     0.585810000000     0.270830000000     0          
O        O      0.870390000000     0.585810000000     0.312500000000     0          
O        O      0.866100000000     0.602570000000     0.333330000000     0          
O        O      0.866100000000     0.602570000000     0.250000000000     0          
O        O      0.861040000000     0.619130000000     0.270830000000     0          
O        O      0.861040000000     0.619130000000     0.312500000000     0          
O        O      0.855250000000     0.635440000000     0.333330000000     0          
O        O      0.855250000000     0.635440000000     0.250000000000     0          
O        O      0.848720000000     0.651460000000     0.270830000000     0          
O        O      0.848720000000     0.651460000000     0.312500000000     0          
O        O      0.841460000000     0.667180000000     0.333330000000     0          
O        O      0.841460000000     0.667180000000     0.250000000000     0          
O        O      0.833500000000     0.682560000000     0.270830000000     0          
O        O      0.833500000000     0.682560000000     0.312500000000     0          
O        O      0.824840000000     0.697540000000     0.333330000000     0          
O        O      0.824840000000     0.697540000000     0.250000000000     0          
O        O      0.815510000000     0.712130000000     0.270830000000     0          
O        O      0.815510000000     0.712130000000     0.312500000000     0          
O        O      0.805530000000     0.726270000000     0.333330000000     0          
O        O      0.805530000000     0.726270000000     0.250000000000     0          
O        O      0.794920000000     0.739940000000     0.270830000000     0          
O        O      0.794920000000     0.739940000000     0.312500000000     0          
O        O      0.783690000000     0.753120000000     0.333330000000     0          
O        O      0.783690000000     0.753120000000     0.250000000000     0          
O        O      0.771880000000     0.765760000000     0.270830000000     0          
O        O      0.771880000000     0.765760000000     0.312500000000     0          
O        O      0.759500000000     0.777850000000     0.333330000000     0          
O        O      0.759500000000     0.777850000000     0.250000000000     0          
O        O      0.746590000000     0.789380000000     0.270830000000     0          
O        O      0.746590000000     0.789380000000     0.312500000000     0          
O        O      0.733160000000     0.800310000000     0.333330000000     0          
O        O      0.733160000000     0.800310000000     0.250000000000     0          
O        O      0.719250000000     0.810610000000     0.270830000000     0          
O        O      0.719250000000     0.810610000000     0.312500000000     0          
O        O      0.704880000000     0.820260000000     0.333330000000     0          
O        O      0.704880000000     0.820260000000     0.250000000000     0          
O        O      0.690100000000     0.829260000000     0.270830000000     0          
O        O      0.690100000000     0.829260000000     0.312500000000     0          
O        O      0.674920000000     0.837570000000     0.333330000000     0          
O        O      0.674920000000     0.837570000000     0.250000000000     0          
O        O      0.659370000000     0.845180000000     0.270830000000     0          
O        O      0.659370000000     0.845180000000     0.312500000000     0          
O        O      0.643490000000     0.852080000000     0.333330000000     0          
O        O      0.643490000000     0.852080000000     0.250000000000     0          
O        O      0.627320000000     0.858240000000     0.270830000000     0          
O        O      0.627320000000     0.858240000000     0.312500000000     0          
O        O      0.610880000000     0.863660000000     0.333330000000     0          
O        O      0.610880000000     0.863660000000     0.250000000000     0          
O        O      0.594210000000     0.868340000000     0.270830000000     0          
O        O      0.594210000000     0.868340000000     0.312500000000     0          
O        O      0.577350000000     0.872250000000     0.333330000000     0          
O        O      0.577350000000     0.872250000000     0.250000000000     0          
O        O      0.560330000000     0.875370000000     0.270830000000     0          
O        O      0.560330000000     0.875370000000     0.312500000000     0          
O        O      0.543190000000     0.877730000000     0.333330000000     0          
O        O      0.543190000000     0.877730000000     0.250000000000     0          
O        O      0.525950000000     0.879310000000     0.270830000000     0          
O        O      0.525950000000     0.879310000000     0.312500000000     0          
O        O      0.508650000000     0.880100000000     0.333330000000     0          
O        O      0.508650000000     0.880100000000     0.250000000000     0          
O        O      0.491350000000     0.880100000000     0.270830000000     0          
O        O      0.491350000000     0.880100000000     0.312500000000     0          
O        O      0.474050000000     0.879310000000     0.333330000000     0          
O        O      0.474050000000     0.879310000000     0.250000000000     0          
O        O      0.456810000000     0.877730000000     0.270830000000     0          
O        O      0.456810000000     0.877730000000     0.312500000000     0          
O        O      0.439670000000     0.875370000000     0.333330000000     0          
O        O      0.439670000000     0.875370000000     0.250000000000     0          
O        O      0.422650000000     0.872250000000     0.270830000000     0          
O        O      0.422650000000     0.872250000000     0.312500000000     0          
O        O      0.405790000000     0.868340000000     0.333330000000     0          
O        O      0.405790000000     0.868340000000     0.250000000000     0          
O        O      0.389120000000     0.863660000000     0.270830000000     0          
O        O      0.389120000000     0.863660000000     0.312500000000     0          
O        O      0.372680000000     0.858240000000     0.333330000000     0          
O        O      0.372680000000     0.858240000000     0.250000000000     0          
O        O      0.356510000000     0.852080000000     0.270830000000     0          
O        O      0.356510000000     0.852080000000     0.312500000000     0          
O        O      0.340630000000     0.845180000000     0.333330000000     0          
O        O      0.340630000000     0.845180000000     0.250000000000     0          
O        O      0.325080000000     0.837570000000     0.270830000000     0          
O        O      0.325080000000     0.837570000000     0.312500000000     0          
O        O      0.309900000000     0.829260000000     0.333330000000     0          
O        O      0.309900000000     0.829260000000     0.250000000000     0          
O        O      0.295120000000     0.820260000000     0.270830000000     0          
O        O      0.295120000000     0.820260000000     0.312500000000     0          
O        O      0.280750000000     0.810610000000     0.333330000000     0          
O        O      0.280750000000     0.810610000000     0.250000000000     0          
O        O      0.266840000000     0.800310000000     0.270830000000     0          
O        O      0.266840000000     0.800310000000     0.312500000000     0          
O        O      0.253410000000     0.789380000000     0.333330000000     0          
O        O      0.253410000000     0.789380000000     0.250000000000     0          
O        O      0.240500000000     0.777850000000     0.270830000000     0          
O        O      0.240500000000     0.777850000000     0.312500000000     0          
O        O      0.228120000000     0.765760000000     0.333330000000     0          
O        O      0.228120000000     0.765760000000     0.250000000000     0          
O        O      0.216310000000     0.753120000000     0.270830000000     0          
O        O      0.216310000000     0.753120000000     0.312500000000     0          
O        O      0.205080000000     0.739940000000     0.333330000000     0          
O        O      0.205080000000     0.739940000000     0.250000000000     0          
O        O      0.194470000000     0.726270000000     0.270830000000     0          
O        O      0.194470000000     0.726270000000     0.312500000000     0          
O        O      0.184490000000     0.712130000000     0.333330000000     0          
O        O      0.184490000000     0.712130000000     0.250000000000     0          
O        O      0.175160000000     0.697540000000     0.270830000000     0          
O        O      0.175160000000     0.697540000000     0.312500000000     0          
O        O      0.166500000000     0.682560000000     0.333330000000     0          
O        O      0.166500000000     0.682560000000     0.250000000000     0          
O        O      0.158540000000     0.667180000000     0.270830000000     0          
O        O      0.158540000000     0.667180000000     0.312500000000     0          
O        O      0.151280000000     0.651460000000     0.333330000000     0          
O        O      0.151280000000     0.651460000000     0.250000000000     0          
O        O      0.144750000000     0.635440000000     0.270830000000     0          
O        O      0.144750000000     0.635440000000     0.312500000000     0          
O        O      0.138960000000     0.619130000000     0.333330000000     0          
O        O      0.138960000000     0.619130000000     0.250000000000     0          
O        O      0.133900000000     0.602570000000     0.270830000000     0          
O        O      0.133900000000     0.602570000000     0.312500000000     0          
O        O      0.129610000000     0.585810000000     0.333330000000     0          
O        O      0.129610000000     0.585810000000     0.250000000000     0          
O        O      0.126090000000     0.568850000000     0.270830000000     0          
O        O      0.126090000000     0.568850000000     0.312500000000     0          
O        O      0.123340000000     0.551770000000     0.333330000000     0          
O        O      0.123340000000     0.551770000000     0.250000000000     0          
O        O      0.121380000000     0.534570000000     0.270830000000     0          
O        O      0.121380000000     0.534570000000     0.312500000000     0          
O        O      0.120200000000     0.517310000000     0.333330000000     0          
O        O      0.120200000000     0.517310000000     0.250000000000     0          
O        O      0.119800000000     0.500000000000     0.270830000000     0          
O        O      0.119800000000     0.500000000000     0.312500000000     0          
O        O      0.120200000000     0.482690000000     0.333330000000     0          
O        O      0.120200000000     0.482690000000     0.250000000000     0          
O        O      0.121380000000     0.465430000000     0.270830000000     0          
O        O      0.121380000000     0.465430000000     0.312500000000     0          
O        O      0.123340000000     0.448230000000     0.333330000000     0          
O        O      0.123340000000     0.448230000000     0.250000000000     0          
O        O      0.126090000000     0.431150000000     0.270830000000     0          
O        O      0.126090000000     0.431150000000     0.312500000000     0          
O        O      0.129610000000     0.414190000000     0.333330000000     0          
O        O      0.129610000000     0.414190000000     0.250000000000     0          
O        O      0.133900000000     0.397430000000     0.270830000000     0          
O        O      0.133900000000     0.397430000000     0.312500000000     0          
O        O      0.138960000000     0.380870000000     0.333330000000     0          
O        O      0.138960000000     0.380870000000     0.250000000000     0          
O        O      0.144750000000     0.364560000000     0.270830000000     0          
O        O      0.144750000000     0.364560000000     0.312500000000     0          
O        O      0.151280000000     0.348540000000     0.333330000000     0          
O        O      0.151280000000     0.348540000000     0.250000000000     0          
O        O      0.158540000000     0.332820000000     0.270830000000     0          
O        O      0.158540000000     0.332820000000     0.312500000000     0          
O        O      0.166500000000     0.317440000000     0.333330000000     0          
O        O      0.166500000000     0.317440000000     0.250000000000     0          
O        O      0.175160000000     0.302460000000     0.270830000000     0          
O        O      0.175160000000     0.302460000000     0.312500000000     0          
O        O      0.184490000000     0.287870000000     0.333330000000     0          
O        O      0.184490000000     0.287870000000     0.250000000000     0          
O        O      0.194470000000     0.273730000000     0.270830000000     0          
O        O      0.194470000000     0.273730000000     0.312500000000     0          
O        O      0.205080000000     0.260060000000     0.333330000000     0          
O        O      0.205080000000     0.260060000000     0.250000000000     0          
O        O      0.216310000000     0.246880000000     0.270830000000     0          
O        O      0.216310000000     0.246880000000     0.312500000000     0          
O        O      0.228120000000     0.234240000000     0.333330000000     0          
O        O      0.228120000000     0.234240000000     0.250000000000     0          
O        O      0.240500000000     0.222150000000     0.270830000000     0          
O        O      0.240500000000     0.222150000000     0.312500000000     0          
O        O      0.253410000000     0.210620000000     0.333330000000     0          
O        O      0.253410000000     0.210620000000     0.250000000000     0          
O        O      0.266840000000     0.199690000000     0.270830000000     0          
O        O      0.266840000000     0.199690000000     0.312500000000     0          
O        O      0.280750000000     0.189390000000     0.333330000000     0          
O        O      0.280750000000     0.189390000000     0.250000000000     0          
O        O      0.295120000000     0.179740000000     0.270830000000     0          
O        O      0.295120000000     0.179740000000     0.312500000000     0          
O        O      0.309900000000     0.170740000000     0.333330000000     0          
O        O      0.309900000000     0.170740000000     0.250000000000     0          
O        O      0.325080000000     0.162430000000     0.270830000000     0          
O        O      0.325080000000     0.162430000000     0.312500000000     0          
O        O      0.340630000000     0.154820000000     0.333330000000     0          
O        O      0.340630000000     0.154820000000     0.250000000000     0          
O        O      0.356510000000     0.147920000000     0.270830000000     0          
O        O      0.356510000000     0.147920000000     0.312500000000     0          
O        O      0.372680000000     0.141760000000     0.333330000000     0          
O        O      0.372680000000     0.141760000000     0.250000000000     0          
O        O      0.389120000000     0.136340000000     0.270830000000     0          
O        O      0.389120000000     0.136340000000     0.312500000000     0          
O        O      0.405790000000     0.131660000000     0.333330000000     0          
O        O      0.405790000000     0.131660000000     0.250000000000     0          
O        O      0.422650000000     0.127750000000     0.270830000000     0          
O        O      0.422650000000     0.127750000000     0.312500000000     0          
O        O      0.439670000000     0.124630000000     0.333330000000     0          
O        O      0.439670000000     0.124630000000     0.250000000000     0          
O        O      0.456810000000     0.122270000000     0.270830000000     0          
O        O      0.456810000000     0.122270000000     0.312500000000     0          
O        O      0.474050000000     0.120690000000     0.333330000000     0          
O        O      0.474050000000     0.120690000000     0.250000000000     0          
O        O      0.491350000000     0.119900000000     0.270830000000     0          
O        O      0.491350000000     0.119900000000     0.312500000000     0          
O        O      0.508650000000     0.119900000000     0.333330000000     0          
O        O      0.508650000000     0.119900000000     0.250000000000     0          
O        O      0.525950000000     0.120690000000     0.270830000000     0          
O        O      0.525950000000     0.120690000000     0.312500000000     0          
O        O      0.543190000000     0.122270000000     0.333330000000     0          
O        O      0.543190000000     0.122270000000     0.250000000000     0          
O        O      0.560330000000     0.124630000000     0.270830000000     0          
O        O      0.560330000000     0.124630000000     0.312500000000     0          
O        O      0.577350000000     0.127750000000     0.333330000000     0          
O        O      0.577350000000     0.127750000000     0.250000000000     0          
O        O      0.594210000000     0.131660000000     0.270830000000     0          
O        O      0.594210000000     0.131660000000     0.312500000000     0          
O        O      0.610880000000     0.136340000000     0.333330000000     0          
O        O      0.610880000000     0.136340000000     0.250000000000     0          
O        O      0.627320000000     0.141760000000     0.270830000000     0          
O        O      0.627320000000     0.141760000000     0.312500000000     0          
O        O      0.643490000000     0.147920000000     0.333330000000     0          
O        O      0.643490000000     0.147920000000     0.250000000000     0          
O        O      0.659370000000     0.154820000000     0.270830000000     0          
O        O      0.659370000000     0.154820000000     0.312500000000     0          
O        O      0.674920000000     0.162430000000     0.333330000000     0          
O        O      0.674920000000     0.162430000000     0.250000000000     0          
O        O      0.690100000000     0.170740000000     0.270830000000     0          
O        O      0.690100000000     0.170740000000     0.312500000000     0          
O        O      0.704880000000     0.179740000000     0.333330000000     0          
O        O      0.704880000000     0.179740000000     0.250000000000     0          
O        O      0.719250000000     0.189390000000     0.270830000000     0          
O        O      0.719250000000     0.189390000000     0.312500000000     0          
O        O      0.733160000000     0.199690000000     0.333330000000     0          
O        O      0.733160000000     0.199690000000     0.250000000000     0          
O        O      0.746590000000     0.210620000000     0.270830000000     0          
O        O      0.746590000000     0.210620000000     0.312500000000     0          
O        O      0.759500000000     0.222150000000     0.333330000000     0          
O        O      0.759500000000     0.222150000000     0.250000000000     0          
O        O      0.771880000000     0.234240000000     0.270830000000     0          
O        O      0.771880000000     0.234240000000     0.312500000000     0          
O        O      0.783690000000     0.246880000000     0.333330000000     0          
O        O      0.783690000000     0.246880000000     0.250000000000     0          
O        O      0.794920000000     0.260060000000     0.270830000000     0          
O        O      0.794920000000     0.260060000000     0.312500000000     0          
O        O      0.805530000000     0.273730000000     0.333330000000     0          
O        O      0.805530000000     0.273730000000     0.250000000000     0          
O        O      0.815510000000     0.287870000000     0.270830000000     0          
O        O      0.815510000000     0.287870000000     0.312500000000     0          
O        O      0.824840000000     0.302460000000     0.333330000000     0          
O        O      0.824840000000     0.302460000000     0.250000000000     0          
O        O      0.833500000000     0.317440000000     0.270830000000     0          
O        O      0.833500000000     0.317440000000     0.312500000000     0          
O        O      0.841460000000     0.332820000000     0.333330000000     0          
O        O      0.841460000000     0.332820000000     0.250000000000     0          
O        O      0.848720000000     0.348540000000     0.270830000000     0          
O        O      0.848720000000     0.348540000000     0.312500000000     0          
O        O      0.855250000000     0.364560000000     0.333330000000     0          
O        O      0.855250000000     0.364560000000     0.250000000000     0          
O        O      0.861040000000     0.380870000000     0.270830000000     0          
O        O      0.861040000000     0.380870000000     0.312500000000     0          
O        O      0.866100000000     0.397430000000     0.333330000000     0          
O        O      0.866100000000     0.397430000000     0.250000000000     0          
O        O      0.870390000000     0.414190000000     0.270830000000     0          
O        O      0.870390000000     0.414190000000     0.312500000000     0          
O        O      0.873910000000     0.431150000000     0.333330000000     0          
O        O      0.873910000000     0.431150000000     0.250000000000     0          
O        O      0.876660000000     0.448230000000     0.270830000000     0          
O        O      0.876660000000     0.448230000000     0.312500000000     0          
O        O      0.878620000000     0.465430000000     0.333330000000     0          
O        O      0.878620000000     0.465430000000     0.250000000000     0          
O        O      0.879800000000     0.482690000000     0.270830000000     0          
O        O      0.879800000000     0.482690000000     0.312500000000     0          
O        O      0.880200000000     0.500000000000     0.333330000000     0          
O        O      0.880200000000     0.500000000000     0.375000000000     0          
O        O      0.879800000000     0.517310000000     0.395830000000     0          
O        O      0.879800000000     0.517310000000     0.437500000000     0          
O        O      0.878620000000     0.534570000000     0.458330000000     0          
O        O      0.878620000000     0.534570000000     0.375000000000     0          
O        O      0.876660000000     0.551770000000     0.395830000000     0          
O        O      0.876660000000     0.551770000000     0.437500000000     0          
O        O      0.873910000000     0.568850000000     0.458330000000     0          
O        O      0.873910000000     0.568850000000     0.375000000000     0          
O        O      0.870390000000     0.585810000000     0.395830000000     0          
O        O      0.870390000000     0.585810000000     0.437500000000     0          
O        O      0.866100000000     0.602570000000     0.458330000000     0          
O        O      0.866100000000     0.602570000000     0.375000000000     0          
O        O      0.861040000000     0.619130000000     0.395830000000     0          
O        O      0.861040000000     0.619130000000     0.437500000000     0          
O        O      0.855250000000     0.635440000000     0.458330000000     0          
O        O      0.855250000000     0.635440000000     0.375000000000     0          
O        O      0.848720000000     0.651460000000     0.395830000000     0          
O        O      0.848720000000     0.651460000000     0.437500000000     0          
O        O      0.841460000000     0.667180000000     0.458330000000     0          
O        O      0.841460000000     0.667180000000     0.375000000000     0          
O        O      0.833500000000     0.682560000000     0.395830000000     0          
O        O      0.833500000000     0.682560000000     0.437500000000     0          
O        O      0.824840000000     0.697540000000     0.458330000000     0          
O        O      0.824840000000     0.697540000000     0.375000000000     0          
O        O      0.815510000000     0.712130000000     0.395830000000     0          
O        O      0.815510000000     0.712130000000     0.437500000000     0          
O        O      0.805530000000     0.726270000000     0.458330000000     0          
O        O      0.805530000000     0.726270000000     0.375000000000     0          
O        O      0.794920000000     0.739940000000     0.395830000000     0          
O        O      0.794920000000     0.739940000000     0.437500000000     0          
O        O      0.783690000000     0.753120000000     0.458330000000     0          
O        O      0.783690000000     0.753120000000     0.375000000000     0          
O        O      0.771880000000     0.765760000000     0.395830000000     0          
O        O      0.771880000000     0.765760000000     0.437500000000     0          
O        O      0.759500000000     0.777850000000     0.458330000000     0          
O        O      0.759500000000     0.777850000000     0.375000000000     0          
O        O      0.746590000000     0.789380000000     0.395830000000     0          
O        O      0.746590000000     0.789380000000     0.437500000000     0          
O        O      0.733160000000     0.800310000000     0.458330000000     0          
O        O      0.733160000000     0.800310000000     0.375000000000     0          
O        O      0.719250000000     0.810610000000     0.395830000000     0          
O        O      0.719250000000     0.810610000000     0.437500000000     0          
O        O      0.704880000000     0.820260000000     0.458330000000     0          
O        O      0.704880000000     0.820260000000     0.375000000000     0          
O        O      0.690100000000     0.829260000000     0.395830000000     0          
O        O      0.690100000000     0.829260000000     0.437500000000     0          
O        O      0.674920000000     0.837570000000     0.458330000000     0          
O        O      0.674920000000     0.837570000000     0.375000000000     0          
O        O      0.659370000000     0.845180000000     0.395830000000     0          
O        O      0.659370000000     0.845180000000     0.437500000000     0          
O        O      0.643490000000     0.852080000000     0.458330000000     0          
O        O      0.643490000000     0.852080000000     0.375000000000     0          
O        O      0.627320000000     0.858240000000     0.395830000000     0          
O        O      0.627320000000     0.858240000000     0.437500000000     0          
O        O      0.610880000000     0.863660000000     0.458330000000     0          
O        O      0.610880000000     0.863660000000     0.375000000000     0          
O        O      0.594210000000     0.868340000000     0.395830000000     0          
O        O      0.594210000000     0.868340000000     0.437500000000     0          
O        O      0.577350000000     0.872250000000     0.458330000000     0          
O        O      0.577350000000     0.872250000000     0.375000000000     0          
O        O      0.560330000000     0.875370000000     0.395830000000     0          
O        O      0.560330000000     0.875370000000     0.437500000000     0          
O        O      0.543190000000     0.877730000000     0.458330000000     0          
O        O      0.543190000000     0.877730000000     0.375000000000     0          
O        O      0.525950000000     0.879310000000     0.395830000000     0          
O        O      0.525950000000     0.879310000000     0.437500000000     0          
O        O      0.508650000000     0.880100000000     0.458330000000     0          
O        O      0.508650000000     0.880100000000     0.375000000000     0          
O        O      0.491350000000     0.880100000000     0.395830000000     0          
O        O      0.491350000000     0.880100000000     0.437500000000     0          
O        O      0.474050000000     0.879310000000     0.458330000000     0          
O        O      0.474050000000     0.879310000000     0.375000000000     0          
O        O      0.456810000000     0.877730000000     0.395830000000     0          
O        O      0.456810000000     0.877730000000     0.437500000000     0          
O        O      0.439670000000     0.875370000000     0.458330000000     0          
O        O      0.439670000000     0.875370000000     0.375000000000     0          
O        O      0.422650000000     0.872250000000     0.395830000000     0          
O        O      0.422650000000     0.872250000000     0.437500000000     0          
O        O      0.405790000000     0.868340000000     0.458330000000     0          
O        O      0.405790000000     0.868340000000     0.375000000000     0          
O        O      0.389120000000     0.863660000000     0.395830000000     0          
O        O      0.389120000000     0.863660000000     0.437500000000     0          
O        O      0.372680000000     0.858240000000     0.458330000000     0          
O        O      0.372680000000     0.858240000000     0.375000000000     0          
O        O      0.356510000000     0.852080000000     0.395830000000     0          
O        O      0.356510000000     0.852080000000     0.437500000000     0          
O        O      0.340630000000     0.845180000000     0.458330000000     0          
O        O      0.340630000000     0.845180000000     0.375000000000     0          
O        O      0.325080000000     0.837570000000     0.395830000000     0          
O        O      0.325080000000     0.837570000000     0.437500000000     0          
O        O      0.309900000000     0.829260000000     0.458330000000     0          
O        O      0.309900000000     0.829260000000     0.375000000000     0          
O        O      0.295120000000     0.820260000000     0.395830000000     0          
O        O      0.295120000000     0.820260000000     0.437500000000     0          
O        O      0.280750000000     0.810610000000     0.458330000000     0          
O        O      0.280750000000     0.810610000000     0.375000000000     0          
O        O      0.266840000000     0.800310000000     0.395830000000     0          
O        O      0.266840000000     0.800310000000     0.437500000000     0          
O        O      0.253410000000     0.789380000000     0.458330000000     0          
O        O      0.253410000000     0.789380000000     0.375000000000     0          
O        O      0.240500000000     0.777850000000     0.395830000000     0          
O        O      0.240500000000     0.777850000000     0.437500000000     0          
O        O      0.228120000000     0.765760000000     0.458330000000     0          
O        O      0.228120000000     0.765760000000     0.375000000000     0          
O        O      0.216310000000     0.753120000000     0.395830000000     0          
O        O      0.216310000000     0.753120000000     0.437500000000     0          
O        O      0.205080000000     0.739940000000     0.458330000000     0          
O        O      0.205080000000     0.739940000000     0.375000000000     0          
O        O      0.194470000000     0.726270000000     0.395830000000     0          
O        O      0.194470000000     0.726270000000     0.437500000000     0          
O        O      0.184490000000     0.712130000000     0.458330000000     0          
O        O      0.184490000000     0.712130000000     0.375000000000     0          
O        O      0.175160000000     0.697540000000     0.395830000000     0          
O        O      0.175160000000     0.697540000000     0.437500000000     0          
O        O      0.166500000000     0.682560000000     0.458330000000     0          
O        O      0.166500000000     0.682560000000     0.375000000000     0          
O        O      0.158540000000     0.667180000000     0.395830000000     0          
O        O      0.158540000000     0.667180000000     0.437500000000     0          
O        O      0.151280000000     0.651460000000     0.458330000000     0          
O        O      0.151280000000     0.651460000000     0.375000000000     0          
O        O      0.144750000000     0.635440000000     0.395830000000     0          
O        O      0.144750000000     0.635440000000     0.437500000000     0          
O        O      0.138960000000     0.619130000000     0.458330000000     0          
O        O      0.138960000000     0.619130000000     0.375000000000     0          
O        O      0.133900000000     0.602570000000     0.395830000000     0          
O        O      0.133900000000     0.602570000000     0.437500000000     0          
O        O      0.129610000000     0.585810000000     0.458330000000     0          
O        O      0.129610000000     0.585810000000     0.375000000000     0          
O        O      0.126090000000     0.568850000000     0.395830000000     0          
O        O      0.126090000000     0.568850000000     0.437500000000     0          
O        O      0.123340000000     0.551770000000     0.458330000000     0          
O        O      0.123340000000     0.551770000000     0.375000000000     0          
O        O      0.121380000000     0.534570000000     0.395830000000     0          
O        O      0.121380000000     0.534570000000     0.437500000000     0          
O        O      0.120200000000     0.517310000000     0.458330000000     0          
O        O      0.120200000000     0.517310000000     0.375000000000     0          
O        O      0.119800000000     0.500000000000     0.395830000000     0          
O        O      0.119800000000     0.500000000000     0.437500000000     0          
O        O      0.120200000000     0.482690000000     0.458330000000     0          
O        O      0.120200000000     0.482690000000     0.375000000000     0          
O        O      0.121380000000     0.465430000000     0.395830000000     0          
O        O      0.121380000000     0.465430000000     0.437500000000     0          
O        O      0.123340000000     0.448230000000     0.458330000000     0          
O        O      0.123340000000     0.448230000000     0.375000000000     0          
O        O      0.126090000000     0.431150000000     0.395830000000     0          
O        O      0.126090000000     0.431150000000     0.437500000000     0          
O        O      0.129610000000     0.414190000000     0.458330000000     0          
O        O      0.129610000000     0.414190000000     0.375000000000     0          
O        O      0.133900000000     0.397430000000     0.395830000000     0          
O        O      0.133900000000     0.397430000000     0.437500000000     0          
O        O      0.138960000000     0.380870000000     0.458330000000     0          
O        O      0.138960000000     0.380870000000     0.375000000000     0          
O        O      0.144750000000     0.364560000000     0.395830000000     0          
O        O      0.144750000000     0.364560000000     0.437500000000     0          
O        O      0.151280000000     0.348540000000     0.458330000000     0          
O        O      0.151280000000     0.348540000000     0.375000000000     0          
O        O      0.158540000000     0.332820000000     0.395830000000     0          
O        O      0.158540000000     0.332820000000     0.437500000000     0          
O        O      0.166500000000     0.317440000000     0.458330000000     0          
O        O      0.166500000000     0.317440000000     0.375000000000     0          
O        O      0.175160000000     0.302460000000     0.395830000000     0          
O        O      0.175160000000     0.302460000000     0.437500000000     0          
O        O      0.184490000000     0.287870000000     0.458330000000     0          
O        O      0.184490000000     0.287870000000     0.375000000000     0          
O        O      0.194470000000     0.273730000000     0.395830000000     0          
O        O      0.194470000000     0.273730000000     0.437500000000     0          
O        O      0.205080000000     0.260060000000     0.458330000000     0          
O        O      0.205080000000     0.260060000000     0.375000000000     0          
O        O      0.216310000000     0.246880000000     0.395830000000     0          
O        O      0.216310000000     0.246880000000     0.437500000000     0          
O        O      0.228120000000     0.234240000000     0.458330000000     0          
O        O      0.228120000000     0.234240000000     0.375000000000     0          
O        O      0.240500000000     0.222150000000     0.395830000000     0          
O        O      0.240500000000     0.222150000000     0.437500000000     0          
O        O      0.253410000000     0.210620000000     0.458330000000     0          
O        O      0.253410000000     0.210620000000     0.375000000000     0          
O        O      0.266840000000     0.199690000000     0.395830000000     0          
O        O      0.266840000000     0.199690000000     0.437500000000     0          
O        O      0.280750000000     0.189390000000     0.458330000000     0          
O        O      0.280750000000     0.189390000000     0.375000000000     0          
O        O      0.295120000000     0.179740000000     0.395830000000     0          
O        O      0.295120000000     0.179740000000     0.437500000000     0          
O        O      0.309900000000     0.170740000000     0.458330000000     0          
O        O      0.309900000000     0.170740000000     0.375000000000     0          
O        O      0.325080000000     0.162430000000     0.395830000000     0          
O        O      0.325080000000     0.162430000000     0.437500000000     0          
O        O      0.340630000000     0.154820000000     0.458330000000     0          
O        O      0.340630000000     0.154820000000     0.375000000000     0          
O        O      0.356510000000     0.147920000000     0.395830000000     0          
O        O      0.356510000000     0.147920000000     0.437500000000     0          
O        O      0.372680000000     0.141760000000     0.458330000000     0          
O        O      0.372680000000     0.141760000000     0.375000000000     0          
O        O      0.389120000000     0.136340000000     0.395830000000     0          
O        O      0.389120000000     0.136340000000     0.437500000000     0          
O        O      0.405790000000     0.131660000000     0.458330000000     0          
O        O      0.405790000000     0.131660000000     0.375000000000     0          
O        O      0.422650000000     0.127750000000     0.395830000000     0          
O        O      0.422650000000     0.127750000000     0.437500000000     0          
O        O      0.439670000000     0.124630000000     0.458330000000     0          
O        O      0.439670000000     0.124630000000     0.375000000000     0          
O        O      0.456810000000     0.122270000000     0.395830000000     0          
O        O      0.456810000000     0.122270000000     0.437500000000     0          
O        O      0.474050000000     0.120690000000     0.458330000000     0          
O        O      0.474050000000     0.120690000000     0.375000000000     0          
O        O      0.491350000000     0.119900000000     0.395830000000     0          
O        O      0.491350000000     0.119900000000     0.437500000000     0          
O        O      0.508650000000     0.119900000000     0.458330000000     0          
O        O      0.508650000000     0.119900000000     0.375000000000     0          
O        O      0.525950000000     0.120690000000     0.395830000000     0          
O        O      0.525950000000     0.120690000000     0.437500000000     0          
O        O      0.543190000000     0.122270000000     0.458330000000     0          
O        O      0.543190000000     0.122270000000     0.375000000000     0          
O        O      0.560330000000     0.124630000000     0.395830000000     0          
O        O      0.560330000000     0.124630000000     0.437500000000     0          
O        O      0.577350000000     0.127750000000     0.458330000000     0          
O        O      0.577350000000     0.127750000000     0.375000000000     0          
O        O      0.594210000000     0.131660000000     0.395830000000     0          
O        O      0.594210000000     0.131660000000     0.437500000000     0          
O        O      0.610880000000     0.136340000000     0.458330000000     0          
O        O      0.610880000000     0.136340000000     0.375000000000     0          
O        O      0.627320000000     0.141760000000     0.395830000000     0          
O        O      0.627320000000     0.141760000000     0.437500000000     0          
O        O      0.643490000000     0.147920000000     0.458330000000     0          
O        O      0.643490000000     0.147920000000     0.375000000000     0          
O        O      0.659370000000     0.154820000000     0.395830000000     0          
O        O      0.659370000000     0.154820000000     0.437500000000     0          
O        O      0.674920000000     0.162430000000     0.458330000000     0          
O        O      0.674920000000     0.162430000000     0.375000000000     0          
O        O      0.690100000000     0.170740000000     0.395830000000     0          
O        O      0.690100000000     0.170740000000     0.437500000000     0          
O        O      0.704880000000     0.179740000000     0.458330000000     0          
O        O      0.704880000000     0.179740000000     0.375000000000     0          
O        O      0.719250000000     0.189390000000     0.395830000000     0          
O        O      0.719250000000     0.189390000000     0.437500000000     0          
O        O      0.733160000000     0.199690000000     0.458330000000     0          
O        O      0.733160000000     0.199690000000     0.375000000000     0          
O        O      0.746590000000     0.210620000000     0.395830000000     0          
O        O      0.746590000000     0.210620000000     0.437500000000     0          
O        O      0.759500000000     0.222150000000     0.458330000000     0          
O        O      0.759500000000     0.222150000000     0.375000000000     0          
O        O      0.771880000000     0.234240000000     0.395830000000     0          
O        O      0.771880000000     0.234240000000     0.437500000000     0          
O        O      0.783690000000     0.246880000000     0.458330000000     0          
O        O      0.783690000000     0.246880000000     0.375000000000     0          
O        O      0.794920000000     0.260060000000     0.395830000000     0          
O        O      0.794920000000     0.260060000000     0.437500000000     0          
O        O      0.805530000000     0.273730000000     0.458330000000     0          
O        O      0.805530000000     0.273730000000     0.375000000000     0          
O        O      0.815510000000     0.287870000000     0.395830000000     0          
O        O      0.815510000000     0.287870000000     0.437500000000     0          
O        O      0.824840000000     0.302460000000     0.458330000000     0          
O        O      0.824840000000     0.302460000000     0.375000000000     0          
O        O      0.833500000000     0.317440000000     0.395830000000     0          
O        O      0.833500000000     0.317440000000     0.437500000000     0          
O        O      0.841460000000     0.332820000000     0.458330000000     0          
O        O      0.841460000000     0.332820000000     0.375000000000     0          
O        O      0.848720000000     0.348540000000     0.395830000000     0          
O        O      0.848720000000     0.348540000000     0.437500000000     0          
O        O      0.855250000000     0.364560000000     0.458330000000     0          
O        O      0.855250000000     0.364560000000     0.375000000000     0          
O        O      0.861040000000     0.380870000000     0.395830000000     0          
O        O      0.861040000000     0.380870000000     0.437500000000     0          
O        O      0.866100000000     0.397430000000     0.458330000000     0          
O        O      0.866100000000     0.397430000000     0.375000000000     0          
O        O      0.870390000000     0.414190000000     0.395830000000     0          
O        O      0.870390000000     0.414190000000     0.437500000000     0          
O        O      0.873910000000     0.431150000000     0.458330000000     0          
O        O      0.873910000000     0.431150000000     0.375000000000     0          
O        O      0.876660000000     0.448230000000     0.395830000000     0          
O        O      0.876660000000     0.448230000000     0.437500000000     0          
O        O      0.878620000000     0.465430000000     0.458330000000     0          
O        O      0.878620000000     0.465430000000     0.375000000000     0          
O        O      0.879800000000     0.482690000000     0.395830000000     0          
O        O      0.879800000000     0.482690000000     0.437500000000     0          
O        O      0.880200000000     0.500000000000     0.458330000000     0          
O        O      0.880200000000     0.500000000000     0.500000000000     0          
O        O      0.879800000000     0.517310000000     0.520830000000     0          
O        O      0.879800000000     0.517310000000     0.562500000000     0          
O        O      0.878620000000     0.534570000000     0.583330000000     0          
O        O      0.878620000000     0.534570000000     0.500000000000     0          
O        O      0.876660000000     0.551770000000     0.520830000000     0          
O        O      0.876660000000     0.551770000000     0.562500000000     0          
O        O      0.873910000000     0.568850000000     0.583330000000     0          
O        O      0.873910000000     0.568850000000     0.500000000000     0          
O        O      0.870390000000     0.585810000000     0.520830000000     0          
O        O      0.870390000000     0.585810000000     0.562500000000     0          
O        O      0.866100000000     0.602570000000     0.583330000000     0          
O        O      0.866100000000     0.602570000000     0.500000000000     0          
O        O      0.861040000000     0.619130000000     0.520830000000     0          
O        O      0.861040000000     0.619130000000     0.562500000000     0          
O        O      0.855250000000     0.635440000000     0.583330000000     0          
O        O      0.855250000000     0.635440000000     0.500000000000     0          
O        O      0.848720000000     0.651460000000     0.520830000000     0          
O        O      0.848720000000     0.651460000000     0.562500000000     0          
O        O      0.841460000000     0.667180000000     0.583330000000     0          
O        O      0.841460000000     0.667180000000     0.500000000000     0          
O        O      0.833500000000     0.682560000000     0.520830000000     0          
O        O      0.833500000000     0.682560000000     0.562500000000     0          
O        O      0.824840000000     0.697540000000     0.583330000000     0          
O        O      0.824840000000     0.697540000000     0.500000000000     0          
O        O      0.815510000000     0.712130000000     0.520830000000     0          
O        O      0.815510000000     0.712130000000     0.562500000000     0          
O        O      0.805530000000     0.726270000000     0.583330000000     0          
O        O      0.805530000000     0.726270000000     0.500000000000     0          
O        O      0.794920000000     0.739940000000     0.520830000000     0          
O        O      0.794920000000     0.739940000000     0.562500000000     0          
O        O      0.783690000000     0.753120000000     0.583330000000     0          
O        O      0.783690000000     0.753120000000     0.500000000000     0          
O        O      0.771880000000     0.765760000000     0.520830000000     0          
O        O      0.771880000000     0.765760000000     0.562500000000     0          
O        O      0.759500000000     0.777850000000     0.583330000000     0          
O        O      0.759500000000     0.777850000000     0.500000000000     0          
O        O      0.746590000000     0.789380000000     0.520830000000     0          
O        O      0.746590000000     0.789380000000     0.562500000000     0          
O        O      0.733160000000     0.800310000000     0.583330000000     0          
O        O      0.733160000000     0.800310000000     0.500000000000     0          
O        O      0.719250000000     0.810610000000     0.520830000000     0          
O        O      0.719250000000     0.810610000000     0.562500000000     0          
O        O      0.704880000000     0.820260000000     0.583330000000     0          
O        O      0.704880000000     0.820260000000     0.500000000000     0          
O        O      0.690100000000     0.829260000000     0.520830000000     0          
O        O      0.690100000000     0.829260000000     0.562500000000     0          
O        O      0.674920000000     0.837570000000     0.583330000000     0          
O        O      0.674920000000     0.837570000000     0.500000000000     0          
O        O      0.659370000000     0.845180000000     0.520830000000     0          
O        O      0.659370000000     0.845180000000     0.562500000000     0          
O        O      0.643490000000     0.852080000000     0.583330000000     0          
O        O      0.643490000000     0.852080000000     0.500000000000     0          
O        O      0.627320000000     0.858240000000     0.520830000000     0          
O        O      0.627320000000     0.858240000000     0.562500000000     0          
O        O      0.610880000000     0.863660000000     0.583330000000     0          
O        O      0.610880000000     0.863660000000     0.500000000000     0          
O        O      0.594210000000     0.868340000000     0.520830000000     0          
O        O      0.594210000000     0.868340000000     0.562500000000     0          
O        O      0.577350000000     0.872250000000     0.583330000000     0          
O        O      0.577350000000     0.872250000000     0.500000000000     0          
O        O      0.560330000000     0.875370000000     0.520830000000     0          
O        O      0.560330000000     0.875370000000     0.562500000000     0          
O        O      0.543190000000     0.877730000000     0.583330000000     0          
O        O      0.543190000000     0.877730000000     0.500000000000     0          
O        O      0.525950000000     0.879310000000     0.520830000000     0          
O        O      0.525950000000     0.879310000000     0.562500000000     0          
O        O      0.508650000000     0.880100000000     0.583330000000     0          
O        O      0.508650000000     0.880100000000     0.500000000000     0          
O        O      0.491350000000     0.880100000000     0.520830000000     0          
O        O      0.491350000000     0.880100000000     0.562500000000     0          
O        O      0.474050000000     0.879310000000     0.583330000000     0          
O        O      0.474050000000     0.879310000000     0.500000000000     0          
O        O      0.456810000000     0.877730000000     0.520830000000     0          
O        O      0.456810000000     0.877730000000     0.562500000000     0          
O        O      0.439670000000     0.875370000000     0.583330000000     0          
O        O      0.439670000000     0.875370000000     0.500000000000     0          
O        O      0.422650000000     0.872250000000     0.520830000000     0          
O        O      0.422650000000     0.872250000000     0.562500000000     0          
O        O      0.405790000000     0.868340000000     0.583330000000     0          
O        O      0.405790000000     0.868340000000     0.500000000000     0          
O        O      0.389120000000     0.863660000000     0.520830000000     0          
O        O      0.389120000000     0.863660000000     0.562500000000     0          
O        O      0.372680000000     0.858240000000     0.583330000000     0          
O        O      0.372680000000     0.858240000000     0.500000000000     0          
O        O      0.356510000000     0.852080000000     0.520830000000     0          
O        O      0.356510000000     0.852080000000     0.562500000000     0          
O        O      0.340630000000     0.845180000000     0.583330000000     0          
O        O      0.340630000000     0.845180000000     0.500000000000     0          
O        O      0.325080000000     0.837570000000     0.520830000000     0          
O        O      0.325080000000     0.837570000000     0.562500000000     0          
O        O      0.309900000000     0.829260000000     0.583330000000     0          
O        O      0.309900000000     0.829260000000     0.500000000000     0          
O        O      0.295120000000     0.820260000000     0.520830000000     0          
O        O      0.295120000000     0.820260000000     0.562500000000     0          
O        O      0.280750000000     0.810610000000     0.583330000000     0          
O        O      0.280750000000     0.810610000000     0.500000000000     0          
O        O      0.266840000000     0.800310000000     0.520830000000     0          
O        O      0.266840000000     0.800310000000     0.562500000000     0          
O        O      0.253410000000     0.789380000000     0.583330000000     0          
O        O      0.253410000000     0.789380000000     0.500000000000     0          
O        O      0.240500000000     0.777850000000     0.520830000000     0          
O        O      0.240500000000     0.777850000000     0.562500000000     0          
O        O      0.228120000000     0.765760000000     0.583330000000     0          
O        O      0.228120000000     0.765760000000     0.500000000000     0          
O        O      0.216310000000     0.753120000000     0.520830000000     0          
O        O      0.216310000000     0.753120000000     0.562500000000     0          
O        O      0.205080000000     0.739940000000     0.583330000000     0          
O        O      0.205080000000     0.739940000000     0.500000000000     0          
O        O      0.194470000000     0.726270000000     0.520830000000     0          
O        O      0.194470000000     0.726270000000     0.562500000000     0          
O        O      0.184490000000     0.712130000000     0.583330000000     0          
O        O      0.184490000000     0.712130000000     0.500000000000     0          
O        O      0.175160000000     0.697540000000     0.520830000000     0          
O        O      0.175160000000     0.697540000000     0.562500000000     0          
O        O      0.166500000000     0.682560000000     0.583330000000     0          
O        O      0.166500000000     0.682560000000     0.500000000000     0          
O        O      0.158540000000     0.667180000000     0.520830000000     0          
O        O      0.158540000000     0.667180000000     0.562500000000     0          
O        O      0.151280000000     0.651460000000     0.583330000000     0          
O        O      0.151280000000     0.651460000000     0.500000000000     0          
O        O      0.144750000000     0.635440000000     0.520830000000     0          
O        O      0.144750000000     0.635440000000     0.562500000000     0          
O        O      0.138960000000     0.619130000000     0.583330000000     0          
O        O      0.138960000000     0.619130000000     0.500000000000     0          
O        O      0.133900000000     0.602570000000     0.520830000000     0          
O        O      0.133900000000     0.602570000000     0.562500000000     0          
O        O      0.129610000000     0.585810000000     0.583330000000     0          
O        O      0.129610000000     0.585810000000     0.500000000000     0          
O        O      0.126090000000     0.568850000000     0.520830000000     0          
O        O      0.126090000000     0.568850000000     0.562500000000     0          
O        O      0.123340000000     0.551770000000     0.583330000000     0          
O        O      0.123340000000     0.551770000000     0.500000000000     0          
O        O      0.121380000000     0.534570000000     0.520830000000     0          
O        O      0.121380000000     0.534570000000     0.562500000000     0          
O        O      0.120200000000     0.517310000000     0.583330000000     0          
O        O      0.120200000000     0.517310000000     0.500000000000     0          
O        O      0.119800000000     0.500000000000     0.520830000000     0          
O        O      0.119800000000     0.500000000000     0.562500000000     0          
O        O      0.120200000000     0.482690000000     0.583330000000     0          
O        O      0.120200000000     0.482690000000     0.500000000000     0          
O        O      0.121380000000     0.465430000000     0.520830000000     0          
O        O      0.121380000000     0.465430000000     0.562500000000     0          
O        O      0.123340000000     0.448230000000     0.583330000000     0          
O        O      0.123340000000     0.448230000000     0.500000000000     0          
O        O      0.126090000000     0.431150000000     0.520830000000     0          
O        O      0.126090000000     0.431150000000     0.562500000000     0          
O        O      0.129610000000     0.414190000000     0.583330000000     0          
O        O      0.129610000000     0.414190000000     0.500000000000     0          
O        O      0.133900000000     0.397430000000     0.520830000000     0          
O        O      0.133900000000     0.397430000000     0.562500000000     0          
O        O      0.138960000000     0.380870000000     0.583330000000     0          
O        O      0.138960000000     0.380870000000     0.500000000000     0          
O        O      0.144750000000     0.364560000000     0.520830000000     0          
O        O      0.144750000000     0.364560000000     0.562500000000     0          
O        O      0.151280000000     0.348540000000     0.583330000000     0          
O        O      0.151280000000     0.348540000000     0.500000000000     0          
O        O      0.158540000000     0.332820000000     0.520830000000     0          
O        O      0.158540000000     0.332820000000     0.562500000000     0          
O        O      0.166500000000     0.317440000000     0.583330000000     0          
O        O      0.166500000000     0.317440000000     0.500000000000     0          
O        O      0.175160000000     0.302460000000     0.520830000000     0          
O        O      0.175160000000     0.302460000000     0.562500000000     0          
O        O      0.184490000000     0.287870000000     0.583330000000     0          
O        O      0.184490000000     0.287870000000     0.500000000000     0          
O        O      0.194470000000     0.273730000000     0.520830000000     0          
O        O      0.194470000000     0.273730000000     0.562500000000     0          
O        O      0.205080000000     0.260060000000     0.583330000000     0          
O        O      0.205080000000     0.260060000000     0.500000000000     0          
O        O      0.216310000000     0.246880000000     0.520830000000     0          
O        O      0.216310000000     0.246880000000     0.562500000000     0          
O        O      0.228120000000     0.234240000000     0.583330000000     0          
O        O      0.228120000000     0.234240000000     0.500000000000     0          
O        O      0.240500000000     0.222150000000     0.520830000000     0          
O        O      0.240500000000     0.222150000000     0.562500000000     0          
O        O      0.253410000000     0.210620000000     0.583330000000     0          
O        O      0.253410000000     0.210620000000     0.500000000000     0          
O        O      0.266840000000     0.199690000000     0.520830000000     0          
O        O      0.266840000000     0.199690000000     0.562500000000     0          
O        O      0.280750000000     0.189390000000     0.583330000000     0          
O        O      0.280750000000     0.189390000000     0.500000000000     0          
O        O      0.295120000000     0.179740000000     0.520830000000     0          
O        O      0.295120000000     0.179740000000     0.562500000000     0          
O        O      0.309900000000     0.170740000000     0.583330000000     0          
O        O      0.309900000000     0.170740000000     0.500000000000     0          
O        O      0.325080000000     0.162430000000     0.520830000000     0          
O        O      0.325080000000     0.162430000000     0.562500000000     0          
O        O      0.340630000000     0.154820000000     0.583330000000     0          
O        O      0.340630000000     0.154820000000     0.500000000000     0          
O        O      0.356510000000     0.147920000000     0.520830000000     0          
O        O      0.356510000000     0.147920000000     0.562500000000     0          
O        O      0.372680000000     0.141760000000     0.583330000000     0          
O        O      0.372680000000     0.141760000000     0.500000000000     0          
O        O      0.389120000000     0.136340000000     0.520830000000     0          
O        O      0.389120000000     0.136340000000     0.562500000000     0          
O        O      0.405790000000     0.131660000000     0.583330000000     0          
O        O      0.405790000000     0.131660000000     0.500000000000     0          
O        O      0.422650000000     0.127750000000     0.520830000000     0          
O        O      0.422650000000     0.127750000000     0.562500000000     0          
O        O      0.439670000000     0.124630000000     0.583330000000     0          
O        O      0.439670000000     0.124630000000     0.500000000000     0          
O        O      0.456810000000     0.122270000000     0.520830000000     0          
O        O      0.456810000000     0.122270000000     0.562500000000     0          
O        O      0.474050000000     0.120690000000     0.583330000000     0          
O        O      0.474050000000     0.120690000000     0.500000000000     0          
O        O      0.491350000000     0.119900000000     0.520830000000     0          
O        O      0.491350000000     0.119900000000     0.562500000000     0          
O        O      0.508650000000     0.119900000000     0.583330000000     0          
O        O      0.508650000000     0.119900000000     0.500000000000     0          
O        O      0.525950000000     0.120690000000     0.520830000000     0          
O        O      0.525950000000     0.120690000000     0.562500000000     0          
O        O      0.543190000000     0.122270000000     0.583330000000     0          
O        O      0.543190000000     0.122270000000     0.500000000000     0          
O        O      0.560330000000     0.124630000000     0.520830000000     0          
O        O      0.560330000000     0.124630000000     0.562500000000     0          
O        O      0.577350000000     0.127750000000     0.583330000000     0          
O        O      0.577350000000     0.127750000000     0.500000000000     0          
O        O      0.594210000000     0.131660000000     0.520830000000     0          
O        O      0.594210000000     0.131660000000     0.562500000000     0          
O        O      0.610880000000     0.136340000000     0.583330000000     0          
O        O      0.610880000000     0.136340000000     0.500000000000     0          
O        O      0.627320000000     0.141760000000     0.520830000000     0          
O        O      0.627320000000     0.141760000000     0.562500000000     0          
O        O      0.643490000000     0.147920000000     0.583330000000     0          
O        O      0.643490000000     0.147920000000     0.500000000000     0          
O        O      0.659370000000     0.154820000000     0.520830000000     0          
O        O      0.659370000000     0.154820000000     0.562500000000     0          
O        O      0.674920000000     0.162430000000     0.583330000000     0          
O        O      0.674920000000     0.162430000000     0.500000000000     0          
O        O      0.690100000000     0.170740000000     0.520830000000     0          
O        O      0.690100000000     0.170740000000     0.562500000000     0          
O        O      0.704880000000     0.179740000000     0.583330000000     0          
O        O      0.704880000000     0.179740000000     0.500000000000     0          
O        O      0.719250000000     0.189390000000     0.520830000000     0          
O        O      0.719250000000     0.189390000000     0.562500000000     0          
O        O      0.733160000000     0.199690000000     0.583330000000     0          
O        O      0.733160000000     0.199690000000     0.500000000000     0          
O        O      0.746590000000     0.210620000000     0.520830000000     0          
O        O      0.746590000000     0.210620000000     0.562500000000     0          
O        O      0.759500000000     0.222150000000     0.583330000000     0          
O        O      0.759500000000     0.222150000000     0.500000000000     0          
O        O      0.771880000000     0.234240000000     0.520830000000     0          
O        O      0.771880000000     0.234240000000     0.562500000000     0          
O        O      0.783690000000     0.246880000000     0.583330000000     0          
O        O      0.783690000000     0.246880000000     0.500000000000     0          
O        O      0.794920000000     0.260060000000     0.520830000000     0          
O        O      0.794920000000     0.260060000000     0.562500000000     0          
O        O      0.805530000000     0.273730000000     0.583330000000     0          
O        O      0.805530000000     0.273730000000     0.500000000000     0          
O        O      0.815510000000     0.287870000000     0.520830000000     0          
O        O      0.815510000000     0.287870000000     0.562500000000     0          
O        O      0.824840000000     0.302460000000     0.583330000000     0          
O        O      0.824840000000     0.302460000000     0.500000000000     0          
O        O      0.833500000000     0.317440000000     0.520830000000     0          
O        O      0.833500000000     0.317440000000     0.562500000000     0          
O        O      0.841460000000     0.332820000000     0.583330000000     0          
O        O      0.841460000000     0.332820000000     0.500000000000     0          
O        O      0.848720000000     0.348540000000     0.520830000000     0          
O        O      0.848720000000     0.348540000000     0.562500000000     0          
O        O      0.855250000000     0.364560000000     0.583330000000     0          
O        O      0.855250000000     0.364560000000     0.500000000000     0          
O        O      0.861040000000     0.380870000000     0.520830000000     0          
O        O      0.861040000000     0.380870000000     0.562500000000     0          
O        O      0.866100000000     0.397430000000     0.583330000000     0          
O        O      0.866100000000     0.397430000000     0.500000000000     0          
O        O      0.870390000000     0.414190000000     0.520830000000     0          
O        O      0.870390000000     0.414190000000     0.562500000000     0          
O        O      0.873910000000     0.431150000000     0.583330000000     0          
O        O      0.873910000000     0.431150000000     0.500000000000     0          
O        O      0.876660000000     0.448230000000     0.520830000000     0          
O        O      0.876660000000     0.448230000000     0.562500000000     0          
O        O      0.878620000000     0.465430000000     0.583330000000     0          
O        O      0.878620000000     0.465430000000     0.500000000000     0          
O        O      0.879800000000     0.482690000000     0.520830000000     0          
O        O      0.879800000000     0.482690000000     0.562500000000     0          
O        O      0.880200000000     0.500000000000     0.583330000000     0          
O        O      0.880200000000     0.500000000000     0.625000000000     0          
O        O      0.879800000000     0.517310000000     0.645830000000     0          
O        O      0.879800000000     0.517310000000     0.687500000000     0          
O        O      0.878620000000     0.534570000000     0.708330000000     0          
O        O      0.878620000000     0.534570000000     0.625000000000     0          
O        O      0.876660000000     0.551770000000     0.645830000000     0          
O        O      0.876660000000     0.551770000000     0.687500000000     0          
O        O      0.873910000000     0.568850000000     0.708330000000     0          
O        O      0.873910000000     0.568850000000     0.625000000000     0          
O        O      0.870390000000     0.585810000000     0.645830000000     0          
O        O      0.870390000000     0.585810000000     0.687500000000     0          
O        O      0.866100000000     0.602570000000     0.708330000000     0          
O        O      0.866100000000     0.602570000000     0.625000000000     0          
O        O      0.861040000000     0.619130000000     0.645830000000     0          
O        O      0.861040000000     0.619130000000     0.687500000000     0          
O        O      0.855250000000     0.635440000000     0.708330000000     0          
O        O      0.855250000000     0.635440000000     0.625000000000     0          
O        O      0.848720000000     0.651460000000     0.645830000000     0          
O        O      0.848720000000     0.651460000000     0.687500000000     0          
O        O      0.841460000000     0.667180000000     0.708330000000     0          
O        O      0.841460000000     0.667180000000     0.625000000000     0          
O        O      0.833500000000     0.682560000000     0.645830000000     0          
O        O      0.833500000000     0.682560000000     0.687500000000     0          
O        O      0.824840000000     0.697540000000     0.708330000000     0          
O        O      0.824840000000     0.697540000000     0.625000000000     0          
O        O      0.815510000000     0.712130000000     0.645830000000     0          
O        O      0.815510000000     0.712130000000     0.687500000000     0          
O        O      0.805530000000     0.726270000000     0.708330000000     0          
O        O      0.805530000000     0.726270000000     0.625000000000     0          
O        O      0.794920000000     0.739940000000     0.645830000000     0          
O        O      0.794920000000     0.739940000000     0.687500000000     0          
O        O      0.783690000000     0.753120000000     0.708330000000     0          
O        O      0.783690000000     0.753120000000     0.625000000000     0          
O        O      0.771880000000     0.765760000000     0.645830000000     0          
O        O      0.771880000000     0.765760000000     0.687500000000     0          
O        O      0.759500000000     0.777850000000     0.708330000000     0          
O        O      0.759500000000     0.777850000000     0.625000000000     0          
O        O      0.746590000000     0.789380000000     0.645830000000     0          
O        O      0.746590000000     0.789380000000     0.687500000000     0          
O        O      0.733160000000     0.800310000000     0.708330000000     0          
O        O      0.733160000000     0.800310000000     0.625000000000     0          
O        O      0.719250000000     0.810610000000     0.645830000000     0          
O        O      0.719250000000     0.810610000000     0.687500000000     0          
O        O      0.704880000000     0.820260000000     0.708330000000     0          
O        O      0.704880000000     0.820260000000     0.625000000000     0          
O        O      0.690100000000     0.829260000000     0.645830000000     0          
O        O      0.690100000000     0.829260000000     0.687500000000     0          
O        O      0.674920000000     0.837570000000     0.708330000000     0          
O        O      0.674920000000     0.837570000000     0.625000000000     0          
O        O      0.659370000000     0.845180000000     0.645830000000     0          
O        O      0.659370000000     0.845180000000     0.687500000000     0          
O        O      0.643490000000     0.852080000000     0.708330000000     0          
O        O      0.643490000000     0.852080000000     0.625000000000     0          
O        O      0.627320000000     0.858240000000     0.645830000000     0          
O        O      0.627320000000     0.858240000000     0.687500000000     0          
O        O      0.610880000000     0.863660000000     0.708330000000     0          
O        O      0.610880000000     0.863660000000     0.625000000000     0          
O        O      0.594210000000     0.868340000000     0.645830000000     0          
O        O      0.594210000000     0.868340000000     0.687500000000     0          
O        O      0.577350000000     0.872250000000     0.708330000000     0          
O        O      0.577350000000     0.872250000000     0.625000000000     0          
O        O      0.560330000000     0.875370000000     0.645830000000     0          
O        O      0.560330000000     0.875370000000     0.687500000000     0          
O        O      0.543190000000     0.877730000000     0.708330000000     0          
O        O      0.543190000000     0.877730000000     0.625000000000     0          
O        O      0.525950000000     0.879310000000     0.645830000000     0          
O        O      0.525950000000     0.879310000000     0.687500000000     0          
O        O      0.508650000000     0.880100000000     0.708330000000     0          
O        O      0.508650000000     0.880100000000     0.625000000000     0          
O        O      0.491350000000     0.880100000000     0.645830000000     0          
O        O      0.491350000000     0.880100000000     0.687500000000     0          
O        O      0.474050000000     0.879310000000     0.708330000000     0          
O        O      0.474050000000     0.879310000000     0.625000000000     0          
O        O      0.456810000000     0.877730000000     0.645830000000     0          
O        O      0.456810000000     0.877730000000     0.687500000000     0          
O        O      0.439670000000     0.875370000000     0.708330000000     0          
O        O      0.439670000000     0.875370000000     0.625000000000     0          
O        O      0.422650000000     0.872250000000     0.645830000000     0          
O        O      0.422650000000     0.872250000000     0.687500000000     0          
O        O      0.405790000000     0.868340000000     0.708330000000     0          
O        O      0.405790000000     0.868340000000     0.625000000000     0          
O        O      0.389120000000     0.863660000000     0.645830000000     0          
O        O      0.389120000000     0.863660000000     0.687500000000     0          
O        O      0.372680000000     0.858240000000     0.708330000000     0          
O        O      0.372680000000     0.858240000000     0.625000000000     0          
O        O      0.356510000000     0.852080000000     0.645830000000     0          
O        O      0.356510000000     0.852080000000     0.687500000000     0          
O        O      0.340630000000     0.845180000000     0.708330000000     0          
O        O      0.340630000000     0.845180000000     0.625000000000     0          
O        O      0.325080000000     0.837570000000     0.645830000000     0          
O        O      0.325080000000     0.837570000000     0.687500000000     0          
O        O      0.309900000000     0.829260000000     0.708330000000     0          
O        O      0.309900000000     0.829260000000     0.625000000000     0          
O        O      0.295120000000     0.820260000000     0.645830000000     0          
O        O      0.295120000000     0.820260000000     0.687500000000     0          
O        O      0.280750000000     0.810610000000     0.708330000000     0          
O        O      0.280750000000     0.810610000000     0.625000000000     0          
O        O      0.266840000000     0.800310000000     0.645830000000     0          
O        O      0.266840000000     0.800310000000     0.687500000000     0          
O        O      0.253410000000     0.789380000000     0.708330000000     0          
O        O      0.253410000000     0.789380000000     0.625000000000     0          
O        O      0.240500000000     0.777850000000     0.645830000000     0          
O        O      0.240500000000     0.777850000000     0.687500000000     0          
O        O      0.228120000000     0.765760000000     0.708330000000     0          
O        O      0.228120000000     0.765760000000     0.625000000000     0          
O        O      0.216310000000     0.753120000000     0.645830000000     0          
O        O      0.216310000000     0.753120000000     0.687500000000     0          
O        O      0.205080000000     0.739940000000     0.708330000000     0          
O        O      0.205080000000     0.739940000000     0.625000000000     0          
O        O      0.194470000000     0.726270000000     0.645830000000     0          
O        O      0.194470000000     0.726270000000     0.687500000000     0          
O        O      0.184490000000     0.712130000000     0.708330000000     0          
O        O      0.184490000000     0.712130000000     0.625000000000     0          
O        O      0.175160000000     0.697540000000     0.645830000000     0          
O        O      0.175160000000     0.697540000000     0.687500000000     0          
O        O      0.166500000000     0.682560000000     0.708330000000     0          
O        O      0.166500000000     0.682560000000     0.625000000000     0          
O        O      0.158540000000     0.667180000000     0.645830000000     0          
O        O      0.158540000000     0.667180000000     0.687500000000     0          
O        O      0.151280000000     0.651460000000     0.708330000000     0          
O        O      0.151280000000     0.651460000000     0.625000000000     0          
O        O      0.144750000000     0.635440000000     0.645830000000     0          
O        O      0.144750000000     0.635440000000     0.687500000000     0          
O        O      0.138960000000     0.619130000000     0.708330000000     0          
O        O      0.138960000000     0.619130000000     0.625000000000     0          
O        O      0.133900000000     0.602570000000     0.645830000000     0          
O        O      0.133900000000     0.602570000000     0.687500000000     0          
O        O      0.129610000000     0.585810000000     0.708330000000     0          
O        O      0.129610000000     0.585810000000     0.625000000000     0          
O        O      0.126090000000     0.568850000000     0.645830000000     0          
O        O      0.126090000000     0.568850000000     0.687500000000     0          
O        O      0.123340000000     0.551770000000     0.708330000000     0          
O        O      0.123340000000     0.551770000000     0.625000000000     0          
O        O      0.121380000000     0.534570000000     0.645830000000     0          
O        O      0.121380000000     0.534570000000     0.687500000000     0          
O        O      0.120200000000     0.517310000000     0.708330000000     0          
O        O      0.120200000000     0.517310000000     0.625000000000     0          
O        O      0.119800000000     0.500000000000     0.645830000000     0          
O        O      0.119800000000     0.500000000000     0.687500000000     0          
O        O      0.120200000000     0.482690000000     0.708330000000     0          
O        O      0.120200000000     0.482690000000     0.625000000000     0          
O        O      0.121380000000     0.465430000000     0.645830000000     0          
O        O      0.121380000000     0.465430000000     0.687500000000     0          
O        O      0.123340000000     0.448230000000     0.708330000000     0          
O        O      0.123340000000     0.448230000000     0.625000000000     0          
O        O      0.126090000000     0.431150000000     0.645830000000     0          
O        O      0.126090000000     0.431150000000     0.687500000000     0          
O        O      0.129610000000     0.414190000000     0.708330000000     0          
O        O      0.129610000000     0.414190000000     0.625000000000     0          
O        O      0.133900000000     0.397430000000     0.645830000000     0          
O        O      0.133900000000     0.397430000000     0.687500000000     0          
O        O      0.138960000000     0.380870000000     0.708330000000     0          
O        O      0.138960000000     0.380870000000     0.625000000000     0          
O        O      0.144750000000     0.364560000000     0.645830000000     0          
O        O      0.144750000000     0.364560000000     0.687500000000     0          
O        O      0.151280000000     0.348540000000     0.708330000000     0          
O        O      0.151280000000     0.348540000000     0.625000000000     0          
O        O      0.158540000000     0.332820000000     0.645830000000     0          
O        O      0.158540000000     0.332820000000     0.687500000000     0          
O        O      0.166500000000     0.317440000000     0.708330000000     0          
O        O      0.166500000000     0.317440000000     0.625000000000     0          
O        O      0.175160000000     0.302460000000     0.645830000000     0          
O        O      0.175160000000     0.302460000000     0.687500000000     0          
O        O      0.184490000000     0.287870000000     0.708330000000     0          
O        O      0.184490000000     0.287870000000     0.625000000000     0          
O        O      0.194470000000     0.273730000000     0.645830000000     0          
O        O      0.194470000000     0.273730000000     0.687500000000     0          
O        O      0.205080000000     0.260060000000     0.708330000000     0          
O        O      0.205080000000     0.260060000000     0.625000000000     0          
O        O      0.216310000000     0.246880000000     0.645830000000     0          
O        O      0.216310000000     0.246880000000     0.687500000000     0          
O        O      0.228120000000     0.234240000000     0.708330000000     0          
O        O      0.228120000000     0.234240000000     0.625000000000     0          
O        O      0.240500000000     0.222150000000     0.645830000000     0          
O        O      0.240500000000     0.222150000000     0.687500000000     0          
O        O      0.253410000000     0.210620000000     0.708330000000     0          
O        O      0.253410000000     0.210620000000     0.625000000000     0          
O        O      0.266840000000     0.199690000000     0.645830000000     0          
O        O      0.266840000000     0.199690000000     0.687500000000     0          
O        O      0.280750000000     0.189390000000     0.708330000000     0          
O        O      0.280750000000     0.189390000000     0.625000000000     0          
O        O      0.295120000000     0.179740000000     0.645830000000     0          
O        O      0.295120000000     0.179740000000     0.687500000000     0          
O        O      0.309900000000     0.170740000000     0.708330000000     0          
O        O      0.309900000000     0.170740000000     0.625000000000     0          
O        O      0.325080000000     0.162430000000     0.645830000000     0          
O        O      0.325080000000     0.162430000000     0.687500000000     0          
O        O      0.340630000000     0.154820000000     0.708330000000     0          
O        O      0.340630000000     0.154820000000     0.625000000000     0          
O        O      0.356510000000     0.147920000000     0.645830000000     0          
O        O      0.356510000000     0.147920000000     0.687500000000     0          
O        O      0.372680000000     0.141760000000     0.708330000000     0          
O        O      0.372680000000     0.141760000000     0.625000000000     0          
O        O      0.389120000000     0.136340000000     0.645830000000     0          
O        O      0.389120000000     0.136340000000     0.687500000000     0          
O        O      0.405790000000     0.131660000000     0.708330000000     0          
O        O      0.405790000000     0.131660000000     0.625000000000     0          
O        O      0.422650000000     0.127750000000     0.645830000000     0          
O        O      0.422650000000     0.127750000000     0.687500000000     0          
O        O      0.439670000000     0.124630000000     0.708330000000     0          
O        O      0.439670000000     0.124630000000     0.625000000000     0          
O        O      0.456810000000     0.122270000000     0.645830000000     0          
O        O      0.456810000000     0.122270000000     0.687500000000     0          
O        O      0.474050000000     0.120690000000     0.708330000000     0          
O        O      0.474050000000     0.120690000000     0.625000000000     0          
O        O      0.491350000000     0.119900000000     0.645830000000     0          
O        O      0.491350000000     0.119900000000     0.687500000000     0          
O        O      0.508650000000     0.119900000000     0.708330000000     0          
O        O      0.508650000000     0.119900000000     0.625000000000     0          
O        O      0.525950000000     0.120690000000     0.645830000000     0          
O        O      0.525950000000     0.120690000000     0.687500000000     0          
O        O      0.543190000000     0.122270000000     0.708330000000     0          
O        O      0.543190000000     0.122270000000     0.625000000000     0          
O        O      0.560330000000     0.124630000000     0.645830000000     0          
O        O      0.560330000000     0.124630000000     0.687500000000     0          
O        O      0.577350000000     0.127750000000     0.708330000000     0          
O        O      0.577350000000     0.127750000000     0.625000000000     0          
O        O      0.594210000000     0.131660000000     0.645830000000     0          
O        O      0.594210000000     0.131660000000     0.687500000000     0          
O        O      0.610880000000     0.136340000000     0.708330000000     0          
O        O      0.610880000000     0.136340000000     0.625000000000     0          
O        O      0.627320000000     0.141760000000     0.645830000000     0          
O        O      0.627320000000     0.141760000000     0.687500000000     0          
O        O      0.643490000000     0.147920000000     0.708330000000     0          
O        O      0.643490000000     0.147920000000     0.625000000000     0          
O        O      0.659370000000     0.154820000000     0.645830000000     0          
O        O      0.659370000000     0.154820000000     0.687500000000     0          
O        O      0.674920000000     0.162430000000     0.708330000000     0          
O        O      0.674920000000     0.162430000000     0.625000000000     0          
O        O      0.690100000000     0.170740000000     0.645830000000     0          
O        O      0.690100000000     0.170740000000     0.687500000000     0          
O        O      0.704880000000     0.179740000000     0.708330000000     0          
O        O      0.704880000000     0.179740000000     0.625000000000     0          
O        O      0.719250000000     0.189390000000     0.645830000000     0          
O        O      0.719250000000     0.189390000000     0.687500000000     0          
O        O      0.733160000000     0.199690000000     0.708330000000     0          
O        O      0.733160000000     0.199690000000     0.625000000000     0          
O        O      0.746590000000     0.210620000000     0.645830000000     0          
O        O      0.746590000000     0.210620000000     0.687500000000     0          
O        O      0.759500000000     0.222150000000     0.708330000000     0          
O        O      0.759500000000     0.222150000000     0.625000000000     0          
O        O      0.771880000000     0.234240000000     0.645830000000     0          
O        O      0.771880000000     0.234240000000     0.687500000000     0          
O        O      0.783690000000     0.246880000000     0.708330000000     0          
O        O      0.783690000000     0.246880000000     0.625000000000     0          
O        O      0.794920000000     0.260060000000     0.645830000000     0          
O        O      0.794920000000     0.260060000000     0.687500000000     0          
O        O      0.805530000000     0.273730000000     0.708330000000     0          
O        O      0.805530000000     0.273730000000     0.625000000000     0          
O        O      0.815510000000     0.287870000000     0.645830000000     0          
O        O      0.815510000000     0.287870000000     0.687500000000     0          
O        O      0.824840000000     0.302460000000     0.708330000000     0          
O        O      0.824840000000     0.302460000000     0.625000000000     0          
O        O      0.833500000000     0.317440000000     0.645830000000     0          
O        O      0.833500000000     0.317440000000     0.687500000000     0          
O        O      0.841460000000     0.332820000000     0.708330000000     0          
O        O      0.841460000000     0.332820000000     0.625000000000     0          
O        O      0.848720000000     0.348540000000     0.645830000000     0          
O        O      0.848720000000     0.348540000000     0.687500000000     0          
O        O      0.855250000000     0.364560000000     0.708330000000     0          
O        O      0.855250000000     0.364560000000     0.625000000000     0          
O        O      0.861040000000     0.380870000000     0.645830000000     0          
O        O      0.861040000000     0.380870000000     0.687500000000     0          
O        O      0.866100000000     0.397430000000     0.708330000000     0          
O        O      0.866100000000     0.397430000000     0.625000000000     0          
O        O      0.870390000000     0.414190000000     0.645830000000     0          
O        O      0.870390000000     0.414190000000     0.687500000000     0          
O        O      0.873910000000     0.431150000000     0.708330000000     0          
O        O      0.873910000000     0.431150000000     0.625000000000     0          
O        O      0.876660000000     0.448230000000     0.645830000000     0          
O        O      0.876660000000     0.448230000000     0.687500000000     0          
O        O      0.878620000000     0.465430000000     0.708330000000     0          
O        O      0.878620000000     0.465430000000     0.625000000000     0          
O        O      0.879800000000     0.482690000000     0.645830000000     0          
O        O      0.879800000000     0.482690000000     0.687500000000     0          
O        O      0.880200000000     0.500000000000     0.708330000000     0          
O        O      0.880200000000     0.500000000000     0.750000000000     0          
O        O      0.879800000000     0.517310000000     0.770830000000     0          
O        O      0.879800000000     0.517310000000     0.812500000000     0          
O        O      0.878620000000     0.534570000000     0.833330000000     0          
O        O      0.878620000000     0.534570000000     0.750000000000     0          
O        O      0.876660000000     0.551770000000     0.770830000000     0          
O        O      0.876660000000     0.551770000000     0.812500000000     0          
O        O      0.873910000000     0.568850000000     0.833330000000     0          
O        O      0.873910000000     0.568850000000     0.750000000000     0          
O        O      0.870390000000     0.585810000000     0.770830000000     0          
O        O      0.870390000000     0.585810000000     0.812500000000     0          
O        O      0.866100000000     0.602570000000     0.833330000000     0          
O        O      0.866100000000     0.602570000000     0.750000000000     0          
O        O      0.861040000000     0.619130000000     0.770830000000     0          
O        O      0.861040000000     0.619130000000     0.812500000000     0          
O        O      0.855250000000     0.635440000000     0.833330000000     0          
O        O      0.855250000000     0.635440000000     0.750000000000     0          
O        O      0.848720000000     0.651460000000     0.770830000000     0          
O        O      0.848720000000     0.651460000000     0.812500000000     0          
O        O      0.841460000000     0.667180000000     0.833330000000     0          
O        O      0.841460000000     0.667180000000     0.750000000000     0          
O        O      0.833500000000     0.682560000000     0.770830000000     0          
O        O      0.833500000000     0.682560000000     0.812500000000     0          
O        O      0.824840000000     0.697540000000     0.833330000000     0          
O        O      0.824840000000     0.697540000000     0.750000000000     0          
O        O      0.815510000000     0.712130000000     0.770830000000     0          
O        O      0.815510000000     0.712130000000     0.812500000000     0          
O        O      0.805530000000     0.726270000000     0.833330000000     0          
O        O      0.805530000000     0.726270000000     0.750000000000     0          
O        O      0.794920000000     0.739940000000     0.770830000000     0          
O        O      0.794920000000     0.739940000000     0.812500000000     0          
O        O      0.783690000000     0.753120000000     0.833330000000     0          
O        O      0.783690000000     0.753120000000     0.750000000000     0          
O        O      0.771880000000     0.765760000000     0.770830000000     0          
O        O      0.771880000000     0.765760000000     0.812500000000     0          
O        O      0.759500000000     0.777850000000     0.833330000000     0          
O        O      0.759500000000     0.777850000000     0.750000000000     0          
O        O      0.746590000000     0.789380000000     0.770830000000     0          
O        O      0.746590000000     0.789380000000     0.812500000000     0          
O        O      0.733160000000     0.800310000000     0.833330000000     0          
O        O      0.733160000000     0.800310000000     0.750000000000     0          
O        O      0.719250000000     0.810610000000     0.770830000000     0          
O        O      0.719250000000     0.810610000000     0.812500000000     0          
O        O      0.704880000000     0.820260000000     0.833330000000     0          
O        O      0.704880000000     0.820260000000     0.750000000000     0          
O        O      0.690100000000     0.829260000000     0.770830000000     0          
O        O      0.690100000000     0.829260000000     0.812500000000     0          
O        O      0.674920000000     0.837570000000     0.833330000000     0          
O        O      0.674920000000     0.837570000000     0.750000000000     0          
O        O      0.659370000000     0.845180000000     0.770830000000     0          
O        O      0.659370000000     0.845180000000     0.812500000000     0          
O        O      0.643490000000     0.852080000000     0.833330000000     0          
O        O      0.643490000000     0.852080000000     0.750000000000     0          
O        O      0.627320000000     0.858240000000     0.770830000000     0          
O        O      0.627320000000     0.858240000000     0.812500000000     0          
O        O      0.610880000000     0.863660000000     0.833330000000     0          
O        O      0.610880000000     0.863660000000     0.750000000000     0          
O        O      0.594210000000     0.868340000000     0.770830000000     0          
O        O      0.594210000000     0.868340000000     0.812500000000     0          
O        O      0.577350000000     0.872250000000     0.833330000000     0          
O        O      0.577350000000     0.872250000000     0.750000000000     0          
O        O      0.560330000000     0.875370000000     0.770830000000     0          
O        O      0.560330000000     0.875370000000     0.812500000000     0          
O        O      0.543190000000     0.877730000000     0.833330000000     0          
O        O      0.543190000000     0.877730000000     0.750000000000     0          
O        O      0.525950000000     0.879310000000     0.770830000000     0          
O        O      0.525950000000     0.879310000000     0.812500000000     0          
O        O      0.508650000000     0.880100000000     0.833330000000     0          
O        O      0.508650000000     0.880100000000     0.750000000000     0          
O        O      0.491350000000     0.880100000000     0.770830000000     0          
O        O      0.491350000000     0.880100000000     0.812500000000     0          
O        O      0.474050000000     0.879310000000     0.833330000000     0          
O        O      0.474050000000     0.879310000000     0.750000000000     0          
O        O      0.456810000000     0.877730000000     0.770830000000     0          
O        O      0.456810000000     0.877730000000     0.812500000000     0          
O        O      0.439670000000     0.875370000000     0.833330000000     0          
O        O      0.439670000000     0.875370000000     0.750000000000     0          
O        O      0.422650000000     0.872250000000     0.770830000000     0          
O        O      0.422650000000     0.872250000000     0.812500000000     0          
O        O      0.405790000000     0.868340000000     0.833330000000     0          
O        O      0.405790000000     0.868340000000     0.750000000000     0          
O        O      0.389120000000     0.863660000000     0.770830000000     0          
O        O      0.389120000000     0.863660000000     0.812500000000     0          
O        O      0.372680000000     0.858240000000     0.833330000000     0          
O        O      0.372680000000     0.858240000000     0.750000000000     0          
O        O      0.356510000000     0.852080000000     0.770830000000     0          
O        O      0.356510000000     0.852080000000     0.812500000000     0          
O        O      0.340630000000     0.845180000000     0.833330000000     0          
O        O      0.340630000000     0.845180000000     0.750000000000     0          
O        O      0.325080000000     0.837570000000     0.770830000000     0          
O        O      0.325080000000     0.837570000000     0.812500000000     0          
O        O      0.309900000000     0.829260000000     0.833330000000     0          
O        O      0.309900000000     0.829260000000     0.750000000000     0          
O        O      0.295120000000     0.820260000000     0.770830000000     0          
O        O      0.295120000000     0.820260000000     0.812500000000     0          
O        O      0.280750000000     0.810610000000     0.833330000000     0          
O        O      0.280750000000     0.810610000000     0.750000000000     0          
O        O      0.266840000000     0.800310000000     0.770830000000     0          
O        O      0.266840000000     0.800310000000     0.812500000000     0          
O        O      0.253410000000     0.789380000000     0.833330000000     0          
O        O      0.253410000000     0.789380000000     0.750000000000     0          
O        O      0.240500000000     0.777850000000     0.770830000000     0          
O        O      0.240500000000     0.777850000000     0.812500000000     0          
O        O      0.228120000000     0.765760000000     0.833330000000     0          
O        O      0.228120000000     0.765760000000     0.750000000000     0          
O        O      0.216310000000     0.753120000000     0.770830000000     0          
O        O      0.216310000000     0.753120000000     0.812500000000     0          
O        O      0.205080000000     0.739940000000     0.833330000000     0          
O        O      0.205080000000     0.739940000000     0.750000000000     0          
O        O      0.194470000000     0.726270000000     0.770830000000     0          
O        O      0.194470000000     0.726270000000     0.812500000000     0          
O        O      0.184490000000     0.712130000000     0.833330000000     0          
O        O      0.184490000000     0.712130000000     0.750000000000     0          
O        O      0.175160000000     0.697540000000     0.770830000000     0          
O        O      0.175160000000     0.697540000000     0.812500000000     0          
O        O      0.166500000000     0.682560000000     0.833330000000     0          
O        O      0.166500000000     0.682560000000     0.750000000000     0          
O        O      0.158540000000     0.667180000000     0.770830000000     0          
O        O      0.158540000000     0.667180000000     0.812500000000     0          
O        O      0.151280000000     0.651460000000     0.833330000000     0          
O        O      0.151280000000     0.651460000000     0.750000000000     0          
O        O      0.144750000000     0.635440000000     0.770830000000     0          
O        O      0.144750000000     0.635440000000     0.812500000000     0          
O        O      0.138960000000     0.619130000000     0.833330000000     0          
O        O      0.138960000000     0.619130000000     0.750000000000     0          
O        O      0.133900000000     0.602570000000     0.770830000000     0          
O        O      0.133900000000     0.602570000000     0.812500000000     0          
O        O      0.129610000000     0.585810000000     0.833330000000     0          
O        O      0.129610000000     0.585810000000     0.750000000000     0          
O        O      0.126090000000     0.568850000000     0.770830000000     0          
O        O      0.126090000000     0.568850000000     0.812500000000     0          
O        O      0.123340000000     0.551770000000     0.833330000000     0          
O        O      0.123340000000     0.551770000000     0.750000000000     0          
O        O      0.121380000000     0.534570000000     0.770830000000     0          
O        O      0.121380000000     0.534570000000     0.812500000000     0          
O        O      0.120200000000     0.517310000000     0.833330000000     0          
O        O      0.120200000000     0.517310000000     0.750000000000     0          
O        O      0.119800000000     0.500000000000     0.770830000000     0          
O        O      0.119800000000     0.500000000000     0.812500000000     0          
O        O      0.120200000000     0.482690000000     0.833330000000     0          
O        O      0.120200000000     0.482690000000     0.750000000000     0          
O        O      0.121380000000     0.465430000000     0.770830000000     0          
O        O      0.121380000000     0.465430000000     0.812500000000     0          
O        O      0.123340000000     0.448230000000     0.833330000000     0          
O        O      0.123340000000     0.448230000000     0.750000000000     0          
O        O      0.126090000000     0.431150000000     0.770830000000     0          
O        O      0.126090000000     0.431150000000     0.812500000000     0          
O        O      0.129610000000     0.414190000000     0.833330000000     0          
O        O      0.129610000000     0.414190000000     0.750000000000     0          
O        O      0.133900000000     0.397430000000     0.770830000000     0          
O        O      0.133900000000     0.397430000000     0.812500000000     0          
O        O      0.138960000000     0.380870000000     0.833330000000     0          
O        O      0.138960000000     0.380870000000     0.750000000000     0          
O        O      0.144750000000     0.364560000000     0.770830000000     0          
O        O      0.144750000000     0.364560000000     0.812500000000     0          
O        O      0.151280000000     0.348540000000     0.833330000000     0          
O        O      0.151280000000     0.348540000000     0.750000000000     0          
O        O      0.158540000000     0.332820000000     0.770830000000     0          
O        O      0.158540000000     0.332820000000     0.812500000000     0          
O        O      0.166500000000     0.317440000000     0.833330000000     0          
O        O      0.166500000000     0.317440000000     0.750000000000     0          
O        O      0.175160000000     0.302460000000     0.770830000000     0          
O        O      0.175160000000     0.302460000000     0.812500000000     0          
O        O      0.184490000000     0.287870000000     0.833330000000     0          
O        O      0.184490000000     0.287870000000     0.750000000000     0          
O        O      0.194470000000     0.273730000000     0.770830000000     0          
O        O      0.194470000000     0.273730000000     0.812500000000     0          
O        O      0.205080000000     0.260060000000     0.833330000000     0          
O        O      0.205080000000     0.260060000000     0.750000000000     0          
O        O      0.216310000000     0.246880000000     0.770830000000     0          
O        O      0.216310000000     0.246880000000     0.812500000000     0          
O        O      0.228120000000     0.234240000000     0.833330000000     0          
O        O      0.228120000000     0.234240000000     0.750000000000     0          
O        O      0.240500000000     0.222150000000     0.770830000000     0          
O        O      0.240500000000     0.222150000000     0.812500000000     0          
O        O      0.253410000000     0.210620000000     0.833330000000     0          
O        O      0.253410000000     0.210620000000     0.750000000000     0          
O        O      0.266840000000     0.199690000000     0.770830000000     0          
O        O      0.266840000000     0.199690000000     0.812500000000     0          
O        O      0.280750000000     0.189390000000     0.833330000000     0          
O        O      0.280750000000     0.189390000000     0.750000000000     0          
O        O      0.295120000000     0.179740000000     0.770830000000     0          
O        O      0.295120000000     0.179740000000     0.812500000000     0          
O        O      0.309900000000     0.170740000000     0.833330000000     0          
O        O      0.309900000000     0.170740000000     0.750000000000     0          
O        O      0.325080000000     0.162430000000     0.770830000000     0          
O        O      0.325080000000     0.162430000000     0.812500000000     0          
O        O      0.340630000000     0.154820000000     0.833330000000     0          
O        O      0.340630000000     0.154820000000     0.750000000000     0          
O        O      0.356510000000     0.147920000000     0.770830000000     0          
O        O      0.356510000000     0.147920000000     0.812500000000     0          
O        O      0.372680000000     0.141760000000     0.833330000000     0          
O        O      0.372680000000     0.141760000000     0.750000000000     0          
O        O      0.389120000000     0.136340000000     0.770830000000     0          
O        O      0.389120000000     0.136340000000     0.812500000000     0          
O        O      0.405790000000     0.131660000000     0.833330000000     0          
O        O      0.405790000000     0.131660000000     0.750000000000     0          
O        O      0.422650000000     0.127750000000     0.770830000000     0          
O        O      0.422650000000     0.127750000000     0.812500000000     0          
O        O      0.439670000000     0.124630000000     0.833330000000     0          
O        O      0.439670000000     0.124630000000     0.750000000000     0          
O        O      0.456810000000     0.122270000000     0.770830000000     0          
O        O      0.456810000000     0.122270000000     0.812500000000     0          
O        O      0.474050000000     0.120690000000     0.833330000000     0          
O        O      0.474050000000     0.120690000000     0.750000000000     0          
O        O      0.491350000000     0.119900000000     0.770830000000     0          
O        O      0.491350000000     0.119900000000     0.812500000000     0          
O        O      0.508650000000     0.119900000000     0.833330000000     0          
O        O      0.508650000000     0.119900000000     0.750000000000     0          
O        O      0.525950000000     0.120690000000     0.770830000000     0          
O        O      0.525950000000     0.120690000000     0.812500000000     0          
O        O      0.543190000000     0.122270000000     0.833330000000     0          
O        O      0.543190000000     0.122270000000     0.750000000000     0          
O        O      0.560330000000     0.124630000000     0.770830000000     0          
O        O      0.560330000000     0.124630000000     0.812500000000     0          
O        O      0.577350000000     0.127750000000     0.833330000000     0          
O        O      0.577350000000     0.127750000000     0.750000000000     0          
O        O      0.594210000000     0.131660000000     0.770830000000     0          
O        O      0.594210000000     0.131660000000     0.812500000000     0          
O        O      0.610880000000     0.136340000000     0.833330000000     0          
O        O      0.610880000000     0.136340000000     0.750000000000     0          
O        O      0.627320000000     0.141760000000     0.770830000000     0          
O        O      0.627320000000     0.141760000000     0.812500000000     0          
O        O      0.643490000000     0.147920000000     0.833330000000     0          
O        O      0.643490000000     0.147920000000     0.750000000000     0          
O        O      0.659370000000     0.154820000000     0.770830000000     0          
O        O      0.659370000000     0.154820000000     0.812500000000     0          
O        O      0.674920000000     0.162430000000     0.833330000000     0          
O        O      0.674920000000     0.162430000000     0.750000000000     0          
O        O      0.690100000000     0.170740000000     0.770830000000     0          
O        O      0.690100000000     0.170740000000     0.812500000000     0          
O        O      0.704880000000     0.179740000000     0.833330000000     0          
O        O      0.704880000000     0.179740000000     0.750000000000     0          
O        O      0.719250000000     0.189390000000     0.770830000000     0          
O        O      0.719250000000     0.189390000000     0.812500000000     0          
O        O      0.733160000000     0.199690000000     0.833330000000     0          
O        O      0.733160000000     0.199690000000     0.750000000000     0          
O        O      0.746590000000     0.210620000000     0.770830000000     0          
O        O      0.746590000000     0.210620000000     0.812500000000     0          
O        O      0.759500000000     0.222150000000     0.833330000000     0          
O        O      0.759500000000     0.222150000000     0.750000000000     0          
O        O      0.771880000000     0.234240000000     0.770830000000     0          
O        O      0.771880000000     0.234240000000     0.812500000000     0          
O        O      0.783690000000     0.246880000000     0.833330000000     0          
O        O      0.783690000000     0.246880000000     0.750000000000     0          
O        O      0.794920000000     0.260060000000     0.770830000000     0          
O        O      0.794920000000     0.260060000000     0.812500000000     0          
O        O      0.805530000000     0.273730000000     0.833330000000     0          
O        O      0.805530000000     0.273730000000     0.750000000000     0          
O        O      0.815510000000     0.287870000000     0.770830000000     0          
O        O      0.815510000000     0.287870000000     0.812500000000     0          
O        O      0.824840000000     0.302460000000     0.833330000000     0          
O        O      0.824840000000     0.302460000000     0.750000000000     0          
O        O      0.833500000000     0.317440000000     0.770830000000     0          
O        O      0.833500000000     0.317440000000     0.812500000000     0          
O        O      0.841460000000     0.332820000000     0.833330000000     0          
O        O      0.841460000000     0.332820000000     0.750000000000     0          
O        O      0.848720000000     0.348540000000     0.770830000000     0          
O        O      0.848720000000     0.348540000000     0.812500000000     0          
O        O      0.855250000000     0.364560000000     0.833330000000     0          
O        O      0.855250000000     0.364560000000     0.750000000000     0          
O        O      0.861040000000     0.380870000000     0.770830000000     0          
O        O      0.861040000000     0.380870000000     0.812500000000     0          
O        O      0.866100000000     0.397430000000     0.833330000000     0          
O        O      0.866100000000     0.397430000000     0.750000000000     0          
O        O      0.870390000000     0.414190000000     0.770830000000     0          
O        O      0.870390000000     0.414190000000     0.812500000000     0          
O        O      0.873910000000     0.431150000000     0.833330000000     0          
O        O      0.873910000000     0.431150000000     0.750000000000     0          
O        O      0.876660000000     0.448230000000     0.770830000000     0          
O        O      0.876660000000     0.448230000000     0.812500000000     0          
O        O      0.878620000000     0.465430000000     0.833330000000     0          
O        O      0.878620000000     0.465430000000     0.750000000000     0          
O        O      0.879800000000     0.482690000000     0.770830000000     0          
O        O      0.879800000000     0.482690000000     0.812500000000     0          
O        O      0.880200000000     0.500000000000     0.833330000000     0          
O        O      0.880200000000     0.500000000000     0.875000000000     0          
O        O      0.879800000000     0.517310000000     0.895830000000     0          
O        O      0.879800000000     0.517310000000     0.937500000000     0          
O        O      0.878620000000     0.534570000000     0.958330000000     0          
O        O      0.878620000000     0.534570000000     0.875000000000     0          
O        O      0.876660000000     0.551770000000     0.895830000000     0          
O        O      0.876660000000     0.551770000000     0.937500000000     0          
O        O      0.873910000000     0.568850000000     0.958330000000     0          
O        O      0.873910000000     0.568850000000     0.875000000000     0          
O        O      0.870390000000     0.585810000000     0.895830000000     0          
O        O      0.870390000000     0.585810000000     0.937500000000     0          
O        O      0.866100000000     0.602570000000     0.958330000000     0          
O        O      0.866100000000     0.602570000000     0.875000000000     0          
O        O      0.861040000000     0.619130000000     0.895830000000     0          
O        O      0.861040000000     0.619130000000     0.937500000000     0          
O        O      0.855250000000     0.635440000000     0.958330000000     0          
O        O      0.855250000000     0.635440000000     0.875000000000     0          
O        O      0.848720000000     0.651460000000     0.895830000000     0          
O        O      0.848720000000     0.651460000000     0.937500000000     0          
O        O      0.841460000000     0.667180000000     0.958330000000     0          
O        O      0.841460000000     0.667180000000     0.875000000000     0          
O        O      0.833500000000     0.682560000000     0.895830000000     0          
O        O      0.833500000000     0.682560000000     0.937500000000     0          
O        O      0.824840000000     0.697540000000     0.958330000000     0          
O        O      0.824840000000     0.697540000000     0.875000000000     0          
O        O      0.815510000000     0.712130000000     0.895830000000     0          
O        O      0.815510000000     0.712130000000     0.937500000000     0          
O        O      0.805530000000     0.726270000000     0.958330000000     0          
O        O      0.805530000000     0.726270000000     0.875000000000     0          
O        O      0.794920000000     0.739940000000     0.895830000000     0          
O        O      0.794920000000     0.739940000000     0.937500000000     0          
O        O      0.783690000000     0.753120000000     0.958330000000     0          
O        O      0.783690000000     0.753120000000     0.875000000000     0          
O        O      0.771880000000     0.765760000000     0.895830000000     0          
O        O      0.771880000000     0.765760000000     0.937500000000     0          
O        O      0.759500000000     0.777850000000     0.958330000000     0          
O        O      0.759500000000     0.777850000000     0.875000000000     0          
O        O      0.746590000000     0.789380000000     0.895830000000     0          
O        O      0.746590000000     0.789380000000     0.937500000000     0          
O        O      0.733160000000     0.800310000000     0.958330000000     0          
O        O      0.733160000000     0.800310000000     0.875000000000     0          
O        O      0.719250000000     0.810610000000     0.895830000000     0          
O        O      0.719250000000     0.810610000000     0.937500000000     0          
O        O      0.704880000000     0.820260000000     0.958330000000     0          
O        O      0.704880000000     0.820260000000     0.875000000000     0          
O        O      0.690100000000     0.829260000000     0.895830000000     0          
O        O      0.690100000000     0.829260000000     0.937500000000     0          
O        O      0.674920000000     0.837570000000     0.958330000000     0          
O        O      0.674920000000     0.837570000000     0.875000000000     0          
O        O      0.659370000000     0.845180000000     0.895830000000     0          
O        O      0.659370000000     0.845180000000     0.937500000000     0          
O        O      0.643490000000     0.852080000000     0.958330000000     0          
O        O      0.643490000000     0.852080000000     0.875000000000     0          
O        O      0.627320000000     0.858240000000     0.895830000000     0          
O        O      0.627320000000     0.858240000000     0.937500000000     0          
O        O      0.610880000000     0.863660000000     0.958330000000     0          
O        O      0.610880000000     0.863660000000     0.875000000000     0          
O        O      0.594210000000     0.868340000000     0.895830000000     0          
O        O      0.594210000000     0.868340000000     0.937500000000     0          
O        O      0.577350000000     0.872250000000     0.958330000000     0          
O        O      0.577350000000     0.872250000000     0.875000000000     0          
O        O      0.560330000000     0.875370000000     0.895830000000     0          
O        O      0.560330000000     0.875370000000     0.937500000000     0          
O        O      0.543190000000     0.877730000000     0.958330000000     0          
O        O      0.543190000000     0.877730000000     0.875000000000     0          
O        O      0.525950000000     0.879310000000     0.895830000000     0          
O        O      0.525950000000     0.879310000000     0.937500000000     0          
O        O      0.508650000000     0.880100000000     0.958330000000     0          
O        O      0.508650000000     0.880100000000     0.875000000000     0          
O        O      0.491350000000     0.880100000000     0.895830000000     0          
O        O      0.491350000000     0.880100000000     0.937500000000     0          
O        O      0.474050000000     0.879310000000     0.958330000000     0          
O        O      0.474050000000     0.879310000000     0.875000000000     0          
O        O      0.456810000000     0.877730000000     0.895830000000     0          
O        O      0.456810000000     0.877730000000     0.937500000000     0          
O        O      0.439670000000     0.875370000000     0.958330000000     0          
O        O      0.439670000000     0.875370000000     0.875000000000     0          
O        O      0.422650000000     0.872250000000     0.895830000000     0          
O        O      0.422650000000     0.872250000000     0.937500000000     0          
O        O      0.405790000000     0.868340000000     0.958330000000     0          
O        O      0.405790000000     0.868340000000     0.875000000000     0          
O        O      0.389120000000     0.863660000000     0.895830000000     0          
O        O      0.389120000000     0.863660000000     0.937500000000     0          
O        O      0.372680000000     0.858240000000     0.958330000000     0          
O        O      0.372680000000     0.858240000000     0.875000000000     0          
O        O      0.356510000000     0.852080000000     0.895830000000     0          
O        O      0.356510000000     0.852080000000     0.937500000000     0          
O        O      0.340630000000     0.845180000000     0.958330000000     0          
O        O      0.340630000000     0.845180000000     0.875000000000     0          
O        O      0.325080000000     0.837570000000     0.895830000000     0          
O        O      0.325080000000     0.837570000000     0.937500000000     0          
O        O      0.309900000000     0.829260000000     0.958330000000     0          
O        O      0.309900000000     0.829260000000     0.875000000000     0          
O        O      0.295120000000     0.820260000000     0.895830000000     0          
O        O      0.295120000000     0.820260000000     0.937500000000     0          
O        O      0.280750000000     0.810610000000     0.958330000000     0          
O        O      0.280750000000     0.810610000000     0.875000000000     0          
O        O      0.266840000000     0.800310000000     0.895830000000     0          
O        O      0.266840000000     0.800310000000     0.937500000000     0          
O        O      0.253410000000     0.789380000000     0.958330000000     0          
O        O      0.253410000000     0.789380000000     0.875000000000     0          
O        O      0.240500000000     0.777850000000     0.895830000000     0          
O        O      0.240500000000     0.777850000000     0.937500000000     0          
O        O      0.228120000000     0.765760000000     0.958330000000     0          
O        O      0.228120000000     0.765760000000     0.875000000000     0          
O        O      0.216310000000     0.753120000000     0.895830000000     0          
O        O      0.216310000000     0.753120000000     0.937500000000     0          
O        O      0.205080000000     0.739940000000     0.958330000000     0          
O        O      0.205080000000     0.739940000000     0.875000000000     0          
O        O      0.194470000000     0.726270000000     0.895830000000     0          
O        O      0.194470000000     0.726270000000     0.937500000000     0          
O        O      0.184490000000     0.712130000000     0.958330000000     0          
O        O      0.184490000000     0.712130000000     0.875000000000     0          
O        O      0.175160000000     0.697540000000     0.895830000000     0          
O        O      0.175160000000     0.697540000000     0.937500000000     0          
O        O      0.166500000000     0.682560000000     0.958330000000     0          
O        O      0.166500000000     0.682560000000     0.875000000000     0          
O        O      0.158540000000     0.667180000000     0.895830000000     0          
O        O      0.158540000000     0.667180000000     0.937500000000     0          
O        O      0.151280000000     0.651460000000     0.958330000000     0          
O        O      0.151280000000     0.651460000000     0.875000000000     0          
O        O      0.144750000000     0.635440000000     0.895830000000     0          
O        O      0.144750000000     0.635440000000     0.937500000000     0          
O        O      0.138960000000     0.619130000000     0.958330000000     0          
O        O      0.138960000000     0.619130000000     0.875000000000     0          
O        O      0.133900000000     0.602570000000     0.895830000000     0          
O        O      0.133900000000     0.602570000000     0.937500000000     0          
O        O      0.129610000000     0.585810000000     0.958330000000     0          
O        O      0.129610000000     0.585810000000     0.875000000000     0          
O        O      0.126090000000     0.568850000000     0.895830000000     0          
O        O      0.126090000000     0.568850000000     0.937500000000     0          
O        O      0.123340000000     0.551770000000     0.958330000000     0          
O        O      0.123340000000     0.551770000000     0.875000000000     0          
O        O      0.121380000000     0.534570000000     0.895830000000     0          
O        O      0.121380000000     0.534570000000     0.937500000000     0          
O        O      0.120200000000     0.517310000000     0.958330000000     0          
O        O      0.120200000000     0.517310000000     0.875000000000     0          
O        O      0.119800000000     0.500000000000     0.895830000000     0          
O        O      0.119800000000     0.500000000000     0.937500000000     0          
O        O      0.120200000000     0.482690000000     0.958330000000     0          
O        O      0.120200000000     0.482690000000     0.875000000000     0          
O        O      0.121380000000     0.465430000000     0.895830000000     0          
O        O      0.121380000000     0.465430000000     0.937500000000     0          
O        O      0.123340000000     0.448230000000     0.958330000000     0          
O        O      0.123340000000     0.448230000000     0.875000000000     0          
O        O      0.126090000000     0.431150000000     0.895830000000     0          
O        O      0.126090000000     0.431150000000     0.937500000000     0          
O        O      0.129610000000     0.414190000000     0.958330000000     0          
O        O      0.129610000000     0.414190000000     0.875000000000     0          
O        O      0.133900000000     0.397430000000     0.895830000000     0          
O        O      0.133900000000     0.397430000000     0.937500000000     0          
O        O      0.138960000000     0.380870000000     0.958330000000     0          
O        O      0.138960000000     0.380870000000     0.875000000000     0          
O        O      0.144750000000     0.364560000000     0.895830000000     0          
O        O      0.144750000000     0.364560000000     0.937500000000     0          
O        O      0.151280000000     0.348540000000     0.958330000000     0          
O        O      0.151280000000     0.348540000000     0.875000000000     0          
O        O      0.158540000000     0.332820000000     0.895830000000     0          
O        O      0.158540000000     0.332820000000     0.937500000000     0          
O        O      0.166500000000     0.317440000000     0.958330000000     0          
O        O      0.166500000000     0.317440000000     0.875000000000     0          
O        O      0.175160000000     0.302460000000     0.895830000000     0          
O        O      0.175160000000     0.302460000000     0.937500000000     0          
O        O      0.184490000000     0.287870000000     0.958330000000     0          
O        O      0.184490000000     0.287870000000     0.875000000000     0          
O        O      0.194470000000     0.273730000000     0.895830000000     0          
O        O      0.194470000000     0.273730000000     0.937500000000     0          
O        O      0.205080000000     0.260060000000     0.958330000000     0          
O        O      0.205080000000     0.260060000000     0.875000000000     0          
O        O      0.216310000000     0.246880000000     0.895830000000     0          
O        O      0.216310000000     0.246880000000     0.937500000000     0          
O        O      0.228120000000     0.234240000000     0.958330000000     0          
O        O      0.228120000000     0.234240000000     0.875000000000     0          
O        O      0.240500000000     0.222150000000     0.895830000000     0          
O        O      0.240500000000     0.222150000000     0.937500000000     0          
O        O      0.253410000000     0.210620000000     0.958330000000     0          
O        O      0.253410000000     0.210620000000     0.875000000000     0          
O        O      0.266840000000     0.199690000000     0.895830000000     0          
O        O      0.266840000000     0.199690000000     0.937500000000     0          
O        O      0.280750000000     0.189390000000     0.958330000000     0          
O        O      0.280750000000     0.189390000000     0.875000000000     0          
O        O      0.295120000000     0.179740000000     0.895830000000     0          
O        O      0.295120000000     0.179740000000     0.937500000000     0          
O        O      0.309900000000     0.170740000000     0.958330000000     0          
O        O      0.309900000000     0.170740000000     0.875000000000     0          
O        O      0.325080000000     0.162430000000     0.895830000000     0          
O        O      0.325080000000     0.162430000000     0.937500000000     0          
O        O      0.340630000000     0.154820000000     0.958330000000     0          
O        O      0.340630000000     0.154820000000     0.875000000000     0          
O        O      0.356510000000     0.147920000000     0.895830000000     0          
O        O      0.356510000000     0.147920000000     0.937500000000     0          
O        O      0.372680000000     0.141760000000     0.958330000000     0          
O        O      0.372680000000     0.141760000000     0.875000000000     0          
O        O      0.389120000000     0.136340000000     0.895830000000     0          
O        O      0.389120000000     0.136340000000     0.937500000000     0          
O        O      0.405790000000     0.131660000000     0.958330000000     0          
O        O      0.405790000000     0.131660000000     0.875000000000     0          
O        O      0.422650000000     0.127750000000     0.895830000000     0          
O        O      0.422650000000     0.127750000000     0.937500000000     0          
O        O      0.439670000000     0.124630000000     0.958330000000     0          
O        O      0.439670000000     0.124630000000     0.875000000000     0          
O        O      0.456810000000     0.122270000000     0.895830000000     0          
O        O      0.456810000000     0.122270000000     0.937500000000     0          
O        O      0.474050000000     0.120690000000     0.958330000000     0          
O        O      0.474050000000     0.120690000000     0.875000000000     0          
O        O      0.491350000000     0.119900000000     0.895830000000     0          
O        O      0.491350000000     0.119900000000     0.937500000000     0          
O        O      0.508650000000     0.119900000000     0.958330000000     0          
O        O      0.508650000000     0.119900000000     0.875000000000     0          
O        O      0.525950000000     0.120690000000     0.895830000000     0          
O        O      0.525950000000     0.120690000000     0.937500000000     0          
O        O      0.543190000000     0.122270000000     0.958330000000     0          
O        O      0.543190000000     0.122270000000     0.875000000000     0          
O        O      0.560330000000     0.124630000000     0.895830000000     0          
O        O      0.560330000000     0.124630000000     0.937500000000     0          
O        O      0.577350000000     0.127750000000     0.958330000000     0          
O        O      0.577350000000     0.127750000000     0.875000000000     0          
O        O      0.594210000000     0.131660000000     0.895830000000     0          
O        O      0.594210000000     0.131660000000     0.937500000000     0          
O        O      0.610880000000     0.136340000000     0.958330000000     0          
O        O      0.610880000000     0.136340000000     0.875000000000     0          
O        O      0.627320000000     0.141760000000     0.895830000000     0          
O        O      0.627320000000     0.141760000000     0.937500000000     0          
O        O      0.643490000000     0.147920000000     0.958330000000     0          
O        O      0.643490000000     0.147920000000     0.875000000000     0          
O        O      0.659370000000     0.154820000000     0.895830000000     0          
O        O      0.659370000000     0.154820000000     0.937500000000     0          
O        O      0.674920000000     0.162430000000     0.958330000000     0          
O        O      0.674920000000     0.162430000000     0.875000000000     0          
O        O      0.690100000000     0.170740000000     0.895830000000     0          
O        O      0.690100000000     0.170740000000     0.937500000000     0          
O        O      0.704880000000     0.179740000000     0.958330000000     0          
O        O      0.704880000000     0.179740000000     0.875000000000     0          
O        O      0.719250000000     0.189390000000     0.895830000000     0          
O        O      0.719250000000     0.189390000000     0.937500000000     0          
O        O      0.733160000000     0.199690000000     0.958330000000     0          
O        O      0.733160000000     0.199690000000     0.875000000000     0          
O        O      0.746590000000     0.210620000000     0.895830000000     0          
O        O      0.746590000000     0.210620000000     0.937500000000     0          
O        O      0.759500000000     0.222150000000     0.958330000000     0          
O        O      0.759500000000     0.222150000000     0.875000000000     0          
O        O      0.771880000000     0.234240000000     0.895830000000     0          
O        O      0.771880000000     0.234240000000     0.937500000000     0          
O        O      0.783690000000     0.246880000000     0.958330000000     0          
O        O      0.783690000000     0.246880000000     0.875000000000     0          
O        O      0.794920000000     0.260060000000     0.895830000000     0          
O        O      0.794920000000     0.260060000000     0.937500000000     0          
O        O      0.805530000000     0.273730000000     0.958330000000     0          
O        O      0.805530000000     0.273730000000     0.875000000000     0          
O        O      0.815510000000     0.287870000000     0.895830000000     0          
O        O      0.815510000000     0.287870000000     0.937500000000     0          
O        O      0.824840000000     0.302460000000     0.958330000000     0          
O        O      0.824840000000     0.302460000000     0.875000000000     0          
O        O      0.833500000000     0.317440000000     0.895830000000     0          
O        O      0.833500000000     0.317440000000     0.937500000000     0          
O        O      0.841460000000     0.332820000000     0.958330000000     0          
O        O      0.841460000000     0.332820000000     0.875000000000     0          
O        O      0.848720000000     0.348540000000     0.895830000000     0          
O        O      0.848720000000     0.348540000000     0.937500000000     0          
O        O      0.855250000000     0.364560000000     0.958330000000     0          
O        O      0.855250000000     0.364560000000     0.875000000000     0          
O        O      0.861040000000     0.380870000000     0.895830000000     0          
O        O      0.861040000000     0.380870000000     0.937500000000     0          
O        O      0.866100000000     0.397430000000     0.958330000000     0          
O        O      0.866100000000     0.397430000000     0.875000000000     0          
O        O      0.870390000000     0.414190000000     0.895830000000     0          
O        O      0.870390000000     0.414190000000     0.937500000000     0          
O        O      0.873910000000     0.431150000000     0.958330000000     0          
O        O      0.873910000000     0.431150000000     0.875000000000     0          
O        O      0.876660000000     0.448230000000     0.895830000000     0          
O        O      0.876660000000     0.448230000000     0.937500000000     0          
O        O      0.878620000000     0.465430000000     0.958330000000     0          
O        O      0.878620000000     0.465430000000     0.875000000000     0          
O        O      0.879800000000     0.482690000000     0.895830000000     0          
O        O      0.879800000000     0.482690000000     0.937500000000     0          
O        O      0.880200000000     0.500000000000     0.958330000000     0          


