data_I
_chemical_name_common Dcc_53.948_vmd.cif
_cell_length_a 70.948
_cell_length_b 70.948
_cell_length_c 34.032
_cell_angle_alpha 90
_cell_angle_beta 90
_cell_angle_gamma 90
_space_group_name_H-M_alt 'P 1'
_space_group_name_Hall 'P 1'
loop_
    _symmetry_equiv_pos_as_xyz
    x,y,z
loop_
    _atom_site_type_symbol
    _atom_site_fract_x
    _atom_site_fract_y
    _atom_site_fract_z
O        0.8802         0.5            0.0       
O        0.8798         0.51731        0.02083   
O        0.8798         0.51731        0.0625    
O        0.87862        0.53457        0.08333   
O        0.87862        0.53457        0.0       
O        0.87666        0.55177        0.02083   
O        0.87666        0.55177        0.0625    
O        0.87391        0.56885        0.08333   
O        0.87391        0.56885        0.0       
O        0.87039        0.58581        0.02083   
O        0.87039        0.58581        0.0625    
O        0.8661         0.60257        0.08333   
O        0.8661         0.60257        0.0       
O        0.86104        0.61913        0.02083   
O        0.86104        0.61913        0.0625    
O        0.85525        0.63544        0.08333   
O        0.85525        0.63544        0.0       
O        0.84872        0.65146        0.02083   
O        0.84872        0.65146        0.0625    
O        0.84146        0.66718        0.08333   
O        0.84146        0.66718        0.0       
O        0.8335         0.68256        0.02083   
O        0.8335         0.68256        0.0625    
O        0.82484        0.69754        0.08333   
O        0.82484        0.69754        0.0       
O        0.81551        0.71213        0.02083   
O        0.81551        0.71213        0.0625    
O        0.80553        0.72627        0.08333   
O        0.80553        0.72627        0.0       
O        0.79492        0.73994        0.02083   
O        0.79492        0.73994        0.0625    
O        0.78369        0.75312        0.08333   
O        0.78369        0.75312        0.0       
O        0.77188        0.76576        0.02083   
O        0.77188        0.76576        0.0625    
O        0.7595         0.77785        0.08333   
O        0.7595         0.77785        0.0       
O        0.74659        0.78938        0.02083   
O        0.74659        0.78938        0.0625    
O        0.73316        0.80031        0.08333   
O        0.73316        0.80031        0.0       
O        0.71925        0.81061        0.02083   
O        0.71925        0.81061        0.0625    
O        0.70488        0.82026        0.08333   
O        0.70488        0.82026        0.0       
O        0.6901         0.82926        0.02083   
O        0.6901         0.82926        0.0625    
O        0.67492        0.83757        0.08333   
O        0.67492        0.83757        0.0       
O        0.65937        0.84518        0.02083   
O        0.65937        0.84518        0.0625    
O        0.64349        0.85208        0.08333   
O        0.64349        0.85208        0.0       
O        0.62732        0.85824        0.02083   
O        0.62732        0.85824        0.0625    
O        0.61088        0.86366        0.08333   
O        0.61088        0.86366        0.0       
O        0.59421        0.86834        0.02083   
O        0.59421        0.86834        0.0625    
O        0.57735        0.87225        0.08333   
O        0.57735        0.87225        0.0       
O        0.56033        0.87537        0.02083   
O        0.56033        0.87537        0.0625    
O        0.54319        0.87773        0.08333   
O        0.54319        0.87773        0.0       
O        0.52595        0.87931        0.02083   
O        0.52595        0.87931        0.0625    
O        0.50865        0.8801         0.08333   
O        0.50865        0.8801         0.0       
O        0.49135        0.8801         0.02083   
O        0.49135        0.8801         0.0625    
O        0.47405        0.87931        0.08333   
O        0.47405        0.87931        0.0       
O        0.45681        0.87773        0.02083   
O        0.45681        0.87773        0.0625    
O        0.43967        0.87537        0.08333   
O        0.43967        0.87537        0.0       
O        0.42265        0.87225        0.02083   
O        0.42265        0.87225        0.0625    
O        0.40579        0.86834        0.08333   
O        0.40579        0.86834        0.0       
O        0.38912        0.86366        0.02083   
O        0.38912        0.86366        0.0625    
O        0.37268        0.85824        0.08333   
O        0.37268        0.85824        0.0       
O        0.35651        0.85208        0.02083   
O        0.35651        0.85208        0.0625    
O        0.34063        0.84518        0.08333   
O        0.34063        0.84518        0.0       
O        0.32508        0.83757        0.02083   
O        0.32508        0.83757        0.0625    
O        0.3099         0.82926        0.08333   
O        0.3099         0.82926        0.0       
O        0.29512        0.82026        0.02083   
O        0.29512        0.82026        0.0625    
O        0.28075        0.81061        0.08333   
O        0.28075        0.81061        0.0       
O        0.26684        0.80031        0.02083   
O        0.26684        0.80031        0.0625    
O        0.25341        0.78938        0.08333   
O        0.25341        0.78938        0.0       
O        0.2405         0.77785        0.02083   
O        0.2405         0.77785        0.0625    
O        0.22812        0.76576        0.08333   
O        0.22812        0.76576        0.0       
O        0.21631        0.75312        0.02083   
O        0.21631        0.75312        0.0625    
O        0.20508        0.73994        0.08333   
O        0.20508        0.73994        0.0       
O        0.19447        0.72627        0.02083   
O        0.19447        0.72627        0.0625    
O        0.18449        0.71213        0.08333   
O        0.18449        0.71213        0.0       
O        0.17516        0.69754        0.02083   
O        0.17516        0.69754        0.0625    
O        0.1665         0.68256        0.08333   
O        0.1665         0.68256        0.0       
O        0.15854        0.66718        0.02083   
O        0.15854        0.66718        0.0625    
O        0.15128        0.65146        0.08333   
O        0.15128        0.65146        0.0       
O        0.14475        0.63544        0.02083   
O        0.14475        0.63544        0.0625    
O        0.13896        0.61913        0.08333   
O        0.13896        0.61913        0.0       
O        0.1339         0.60257        0.02083   
O        0.1339         0.60257        0.0625    
O        0.12961        0.58581        0.08333   
O        0.12961        0.58581        0.0       
O        0.12609        0.56885        0.02083   
O        0.12609        0.56885        0.0625    
O        0.12334        0.55177        0.08333   
O        0.12334        0.55177        0.0       
O        0.12138        0.53457        0.02083   
O        0.12138        0.53457        0.0625    
O        0.1202         0.51731        0.08333   
O        0.1202         0.51731        0.0       
O        0.1198         0.5            0.02083   
O        0.1198         0.5            0.0625    
O        0.1202         0.48269        0.08333   
O        0.1202         0.48269        0.0       
O        0.12138        0.46543        0.02083   
O        0.12138        0.46543        0.0625    
O        0.12334        0.44823        0.08333   
O        0.12334        0.44823        0.0       
O        0.12609        0.43115        0.02083   
O        0.12609        0.43115        0.0625    
O        0.12961        0.41419        0.08333   
O        0.12961        0.41419        0.0       
O        0.1339         0.39743        0.02083   
O        0.1339         0.39743        0.0625    
O        0.13896        0.38087        0.08333   
O        0.13896        0.38087        0.0       
O        0.14475        0.36456        0.02083   
O        0.14475        0.36456        0.0625    
O        0.15128        0.34854        0.08333   
O        0.15128        0.34854        0.0       
O        0.15854        0.33282        0.02083   
O        0.15854        0.33282        0.0625    
O        0.1665         0.31744        0.08333   
O        0.1665         0.31744        0.0       
O        0.17516        0.30246        0.02083   
O        0.17516        0.30246        0.0625    
O        0.18449        0.28787        0.08333   
O        0.18449        0.28787        0.0       
O        0.19447        0.27373        0.02083   
O        0.19447        0.27373        0.0625    
O        0.20508        0.26006        0.08333   
O        0.20508        0.26006        0.0       
O        0.21631        0.24688        0.02083   
O        0.21631        0.24688        0.0625    
O        0.22812        0.23424        0.08333   
O        0.22812        0.23424        0.0       
O        0.2405         0.22215        0.02083   
O        0.2405         0.22215        0.0625    
O        0.25341        0.21062        0.08333   
O        0.25341        0.21062        0.0       
O        0.26684        0.19969        0.02083   
O        0.26684        0.19969        0.0625    
O        0.28075        0.18939        0.08333   
O        0.28075        0.18939        0.0       
O        0.29512        0.17974        0.02083   
O        0.29512        0.17974        0.0625    
O        0.3099         0.17074        0.08333   
O        0.3099         0.17074        0.0       
O        0.32508        0.16243        0.02083   
O        0.32508        0.16243        0.0625    
O        0.34063        0.15482        0.08333   
O        0.34063        0.15482        0.0       
O        0.35651        0.14792        0.02083   
O        0.35651        0.14792        0.0625    
O        0.37268        0.14176        0.08333   
O        0.37268        0.14176        0.0       
O        0.38912        0.13634        0.02083   
O        0.38912        0.13634        0.0625    
O        0.40579        0.13166        0.08333   
O        0.40579        0.13166        0.0       
O        0.42265        0.12775        0.02083   
O        0.42265        0.12775        0.0625    
O        0.43967        0.12463        0.08333   
O        0.43967        0.12463        0.0       
O        0.45681        0.12227        0.02083   
O        0.45681        0.12227        0.0625    
O        0.47405        0.12069        0.08333   
O        0.47405        0.12069        0.0       
O        0.49135        0.1199         0.02083   
O        0.49135        0.1199         0.0625    
O        0.50865        0.1199         0.08333   
O        0.50865        0.1199         0.0       
O        0.52595        0.12069        0.02083   
O        0.52595        0.12069        0.0625    
O        0.54319        0.12227        0.08333   
O        0.54319        0.12227        0.0       
O        0.56033        0.12463        0.02083   
O        0.56033        0.12463        0.0625    
O        0.57735        0.12775        0.08333   
O        0.57735        0.12775        0.0       
O        0.59421        0.13166        0.02083   
O        0.59421        0.13166        0.0625    
O        0.61088        0.13634        0.08333   
O        0.61088        0.13634        0.0       
O        0.62732        0.14176        0.02083   
O        0.62732        0.14176        0.0625    
O        0.64349        0.14792        0.08333   
O        0.64349        0.14792        0.0       
O        0.65937        0.15482        0.02083   
O        0.65937        0.15482        0.0625    
O        0.67492        0.16243        0.08333   
O        0.67492        0.16243        0.0       
O        0.6901         0.17074        0.02083   
O        0.6901         0.17074        0.0625    
O        0.70488        0.17974        0.08333   
O        0.70488        0.17974        0.0       
O        0.71925        0.18939        0.02083   
O        0.71925        0.18939        0.0625    
O        0.73316        0.19969        0.08333   
O        0.73316        0.19969        0.0       
O        0.74659        0.21062        0.02083   
O        0.74659        0.21062        0.0625    
O        0.7595         0.22215        0.08333   
O        0.7595         0.22215        0.0       
O        0.77188        0.23424        0.02083   
O        0.77188        0.23424        0.0625    
O        0.78369        0.24688        0.08333   
O        0.78369        0.24688        0.0       
O        0.79492        0.26006        0.02083   
O        0.79492        0.26006        0.0625    
O        0.80553        0.27373        0.08333   
O        0.80553        0.27373        0.0       
O        0.81551        0.28787        0.02083   
O        0.81551        0.28787        0.0625    
O        0.82484        0.30246        0.08333   
O        0.82484        0.30246        0.0       
O        0.8335         0.31744        0.02083   
O        0.8335         0.31744        0.0625    
O        0.84146        0.33282        0.08333   
O        0.84146        0.33282        0.0       
O        0.84872        0.34854        0.02083   
O        0.84872        0.34854        0.0625    
O        0.85525        0.36456        0.08333   
O        0.85525        0.36456        0.0       
O        0.86104        0.38087        0.02083   
O        0.86104        0.38087        0.0625    
O        0.8661         0.39743        0.08333   
O        0.8661         0.39743        0.0       
O        0.87039        0.41419        0.02083   
O        0.87039        0.41419        0.0625    
O        0.87391        0.43115        0.08333   
O        0.87391        0.43115        0.0       
O        0.87666        0.44823        0.02083   
O        0.87666        0.44823        0.0625    
O        0.87862        0.46543        0.08333   
O        0.87862        0.46543        0.0       
O        0.8798         0.48269        0.02083   
O        0.8798         0.48269        0.0625    
O        0.8802         0.5            0.08333   
O        0.8802         0.5            0.125     
O        0.8798         0.51731        0.14583   
O        0.8798         0.51731        0.1875    
O        0.87862        0.53457        0.20833   
O        0.87862        0.53457        0.125     
O        0.87666        0.55177        0.14583   
O        0.87666        0.55177        0.1875    
O        0.87391        0.56885        0.20833   
O        0.87391        0.56885        0.125     
O        0.87039        0.58581        0.14583   
O        0.87039        0.58581        0.1875    
O        0.8661         0.60257        0.20833   
O        0.8661         0.60257        0.125     
O        0.86104        0.61913        0.14583   
O        0.86104        0.61913        0.1875    
O        0.85525        0.63544        0.20833   
O        0.85525        0.63544        0.125     
O        0.84872        0.65146        0.14583   
O        0.84872        0.65146        0.1875    
O        0.84146        0.66718        0.20833   
O        0.84146        0.66718        0.125     
O        0.8335         0.68256        0.14583   
O        0.8335         0.68256        0.1875    
O        0.82484        0.69754        0.20833   
O        0.82484        0.69754        0.125     
O        0.81551        0.71213        0.14583   
O        0.81551        0.71213        0.1875    
O        0.80553        0.72627        0.20833   
O        0.80553        0.72627        0.125     
O        0.79492        0.73994        0.14583   
O        0.79492        0.73994        0.1875    
O        0.78369        0.75312        0.20833   
O        0.78369        0.75312        0.125     
O        0.77188        0.76576        0.14583   
O        0.77188        0.76576        0.1875    
O        0.7595         0.77785        0.20833   
O        0.7595         0.77785        0.125     
O        0.74659        0.78938        0.14583   
O        0.74659        0.78938        0.1875    
O        0.73316        0.80031        0.20833   
O        0.73316        0.80031        0.125     
O        0.71925        0.81061        0.14583   
O        0.71925        0.81061        0.1875    
O        0.70488        0.82026        0.20833   
O        0.70488        0.82026        0.125     
O        0.6901         0.82926        0.14583   
O        0.6901         0.82926        0.1875    
O        0.67492        0.83757        0.20833   
O        0.67492        0.83757        0.125     
O        0.65937        0.84518        0.14583   
O        0.65937        0.84518        0.1875    
O        0.64349        0.85208        0.20833   
O        0.64349        0.85208        0.125     
O        0.62732        0.85824        0.14583   
O        0.62732        0.85824        0.1875    
O        0.61088        0.86366        0.20833   
O        0.61088        0.86366        0.125     
O        0.59421        0.86834        0.14583   
O        0.59421        0.86834        0.1875    
O        0.57735        0.87225        0.20833   
O        0.57735        0.87225        0.125     
O        0.56033        0.87537        0.14583   
O        0.56033        0.87537        0.1875    
O        0.54319        0.87773        0.20833   
O        0.54319        0.87773        0.125     
O        0.52595        0.87931        0.14583   
O        0.52595        0.87931        0.1875    
O        0.50865        0.8801         0.20833   
O        0.50865        0.8801         0.125     
O        0.49135        0.8801         0.14583   
O        0.49135        0.8801         0.1875    
O        0.47405        0.87931        0.20833   
O        0.47405        0.87931        0.125     
O        0.45681        0.87773        0.14583   
O        0.45681        0.87773        0.1875    
O        0.43967        0.87537        0.20833   
O        0.43967        0.87537        0.125     
O        0.42265        0.87225        0.14583   
O        0.42265        0.87225        0.1875    
O        0.40579        0.86834        0.20833   
O        0.40579        0.86834        0.125     
O        0.38912        0.86366        0.14583   
O        0.38912        0.86366        0.1875    
O        0.37268        0.85824        0.20833   
O        0.37268        0.85824        0.125     
O        0.35651        0.85208        0.14583   
O        0.35651        0.85208        0.1875    
O        0.34063        0.84518        0.20833   
O        0.34063        0.84518        0.125     
O        0.32508        0.83757        0.14583   
O        0.32508        0.83757        0.1875    
O        0.3099         0.82926        0.20833   
O        0.3099         0.82926        0.125     
O        0.29512        0.82026        0.14583   
O        0.29512        0.82026        0.1875    
O        0.28075        0.81061        0.20833   
O        0.28075        0.81061        0.125     
O        0.26684        0.80031        0.14583   
O        0.26684        0.80031        0.1875    
O        0.25341        0.78938        0.20833   
O        0.25341        0.78938        0.125     
O        0.2405         0.77785        0.14583   
O        0.2405         0.77785        0.1875    
O        0.22812        0.76576        0.20833   
O        0.22812        0.76576        0.125     
O        0.21631        0.75312        0.14583   
O        0.21631        0.75312        0.1875    
O        0.20508        0.73994        0.20833   
O        0.20508        0.73994        0.125     
O        0.19447        0.72627        0.14583   
O        0.19447        0.72627        0.1875    
O        0.18449        0.71213        0.20833   
O        0.18449        0.71213        0.125     
O        0.17516        0.69754        0.14583   
O        0.17516        0.69754        0.1875    
O        0.1665         0.68256        0.20833   
O        0.1665         0.68256        0.125     
O        0.15854        0.66718        0.14583   
O        0.15854        0.66718        0.1875    
O        0.15128        0.65146        0.20833   
O        0.15128        0.65146        0.125     
O        0.14475        0.63544        0.14583   
O        0.14475        0.63544        0.1875    
O        0.13896        0.61913        0.20833   
O        0.13896        0.61913        0.125     
O        0.1339         0.60257        0.14583   
O        0.1339         0.60257        0.1875    
O        0.12961        0.58581        0.20833   
O        0.12961        0.58581        0.125     
O        0.12609        0.56885        0.14583   
O        0.12609        0.56885        0.1875    
O        0.12334        0.55177        0.20833   
O        0.12334        0.55177        0.125     
O        0.12138        0.53457        0.14583   
O        0.12138        0.53457        0.1875    
O        0.1202         0.51731        0.20833   
O        0.1202         0.51731        0.125     
O        0.1198         0.5            0.14583   
O        0.1198         0.5            0.1875    
O        0.1202         0.48269        0.20833   
O        0.1202         0.48269        0.125     
O        0.12138        0.46543        0.14583   
O        0.12138        0.46543        0.1875    
O        0.12334        0.44823        0.20833   
O        0.12334        0.44823        0.125     
O        0.12609        0.43115        0.14583   
O        0.12609        0.43115        0.1875    
O        0.12961        0.41419        0.20833   
O        0.12961        0.41419        0.125     
O        0.1339         0.39743        0.14583   
O        0.1339         0.39743        0.1875    
O        0.13896        0.38087        0.20833   
O        0.13896        0.38087        0.125     
O        0.14475        0.36456        0.14583   
O        0.14475        0.36456        0.1875    
O        0.15128        0.34854        0.20833   
O        0.15128        0.34854        0.125     
O        0.15854        0.33282        0.14583   
O        0.15854        0.33282        0.1875    
O        0.1665         0.31744        0.20833   
O        0.1665         0.31744        0.125     
O        0.17516        0.30246        0.14583   
O        0.17516        0.30246        0.1875    
O        0.18449        0.28787        0.20833   
O        0.18449        0.28787        0.125     
O        0.19447        0.27373        0.14583   
O        0.19447        0.27373        0.1875    
O        0.20508        0.26006        0.20833   
O        0.20508        0.26006        0.125     
O        0.21631        0.24688        0.14583   
O        0.21631        0.24688        0.1875    
O        0.22812        0.23424        0.20833   
O        0.22812        0.23424        0.125     
O        0.2405         0.22215        0.14583   
O        0.2405         0.22215        0.1875    
O        0.25341        0.21062        0.20833   
O        0.25341        0.21062        0.125     
O        0.26684        0.19969        0.14583   
O        0.26684        0.19969        0.1875    
O        0.28075        0.18939        0.20833   
O        0.28075        0.18939        0.125     
O        0.29512        0.17974        0.14583   
O        0.29512        0.17974        0.1875    
O        0.3099         0.17074        0.20833   
O        0.3099         0.17074        0.125     
O        0.32508        0.16243        0.14583   
O        0.32508        0.16243        0.1875    
O        0.34063        0.15482        0.20833   
O        0.34063        0.15482        0.125     
O        0.35651        0.14792        0.14583   
O        0.35651        0.14792        0.1875    
O        0.37268        0.14176        0.20833   
O        0.37268        0.14176        0.125     
O        0.38912        0.13634        0.14583   
O        0.38912        0.13634        0.1875    
O        0.40579        0.13166        0.20833   
O        0.40579        0.13166        0.125     
O        0.42265        0.12775        0.14583   
O        0.42265        0.12775        0.1875    
O        0.43967        0.12463        0.20833   
O        0.43967        0.12463        0.125     
O        0.45681        0.12227        0.14583   
O        0.45681        0.12227        0.1875    
O        0.47405        0.12069        0.20833   
O        0.47405        0.12069        0.125     
O        0.49135        0.1199         0.14583   
O        0.49135        0.1199         0.1875    
O        0.50865        0.1199         0.20833   
O        0.50865        0.1199         0.125     
O        0.52595        0.12069        0.14583   
O        0.52595        0.12069        0.1875    
O        0.54319        0.12227        0.20833   
O        0.54319        0.12227        0.125     
O        0.56033        0.12463        0.14583   
O        0.56033        0.12463        0.1875    
O        0.57735        0.12775        0.20833   
O        0.57735        0.12775        0.125     
O        0.59421        0.13166        0.14583   
O        0.59421        0.13166        0.1875    
O        0.61088        0.13634        0.20833   
O        0.61088        0.13634        0.125     
O        0.62732        0.14176        0.14583   
O        0.62732        0.14176        0.1875    
O        0.64349        0.14792        0.20833   
O        0.64349        0.14792        0.125     
O        0.65937        0.15482        0.14583   
O        0.65937        0.15482        0.1875    
O        0.67492        0.16243        0.20833   
O        0.67492        0.16243        0.125     
O        0.6901         0.17074        0.14583   
O        0.6901         0.17074        0.1875    
O        0.70488        0.17974        0.20833   
O        0.70488        0.17974        0.125     
O        0.71925        0.18939        0.14583   
O        0.71925        0.18939        0.1875    
O        0.73316        0.19969        0.20833   
O        0.73316        0.19969        0.125     
O        0.74659        0.21062        0.14583   
O        0.74659        0.21062        0.1875    
O        0.7595         0.22215        0.20833   
O        0.7595         0.22215        0.125     
O        0.77188        0.23424        0.14583   
O        0.77188        0.23424        0.1875    
O        0.78369        0.24688        0.20833   
O        0.78369        0.24688        0.125     
O        0.79492        0.26006        0.14583   
O        0.79492        0.26006        0.1875    
O        0.80553        0.27373        0.20833   
O        0.80553        0.27373        0.125     
O        0.81551        0.28787        0.14583   
O        0.81551        0.28787        0.1875    
O        0.82484        0.30246        0.20833   
O        0.82484        0.30246        0.125     
O        0.8335         0.31744        0.14583   
O        0.8335         0.31744        0.1875    
O        0.84146        0.33282        0.20833   
O        0.84146        0.33282        0.125     
O        0.84872        0.34854        0.14583   
O        0.84872        0.34854        0.1875    
O        0.85525        0.36456        0.20833   
O        0.85525        0.36456        0.125     
O        0.86104        0.38087        0.14583   
O        0.86104        0.38087        0.1875    
O        0.8661         0.39743        0.20833   
O        0.8661         0.39743        0.125     
O        0.87039        0.41419        0.14583   
O        0.87039        0.41419        0.1875    
O        0.87391        0.43115        0.20833   
O        0.87391        0.43115        0.125     
O        0.87666        0.44823        0.14583   
O        0.87666        0.44823        0.1875    
O        0.87862        0.46543        0.20833   
O        0.87862        0.46543        0.125     
O        0.8798         0.48269        0.14583   
O        0.8798         0.48269        0.1875    
O        0.8802         0.5            0.20833   
O        0.8802         0.5            0.25      
O        0.8798         0.51731        0.27083   
O        0.8798         0.51731        0.3125    
O        0.87862        0.53457        0.33333   
O        0.87862        0.53457        0.25      
O        0.87666        0.55177        0.27083   
O        0.87666        0.55177        0.3125    
O        0.87391        0.56885        0.33333   
O        0.87391        0.56885        0.25      
O        0.87039        0.58581        0.27083   
O        0.87039        0.58581        0.3125    
O        0.8661         0.60257        0.33333   
O        0.8661         0.60257        0.25      
O        0.86104        0.61913        0.27083   
O        0.86104        0.61913        0.3125    
O        0.85525        0.63544        0.33333   
O        0.85525        0.63544        0.25      
O        0.84872        0.65146        0.27083   
O        0.84872        0.65146        0.3125    
O        0.84146        0.66718        0.33333   
O        0.84146        0.66718        0.25      
O        0.8335         0.68256        0.27083   
O        0.8335         0.68256        0.3125    
O        0.82484        0.69754        0.33333   
O        0.82484        0.69754        0.25      
O        0.81551        0.71213        0.27083   
O        0.81551        0.71213        0.3125    
O        0.80553        0.72627        0.33333   
O        0.80553        0.72627        0.25      
O        0.79492        0.73994        0.27083   
O        0.79492        0.73994        0.3125    
O        0.78369        0.75312        0.33333   
O        0.78369        0.75312        0.25      
O        0.77188        0.76576        0.27083   
O        0.77188        0.76576        0.3125    
O        0.7595         0.77785        0.33333   
O        0.7595         0.77785        0.25      
O        0.74659        0.78938        0.27083   
O        0.74659        0.78938        0.3125    
O        0.73316        0.80031        0.33333   
O        0.73316        0.80031        0.25      
O        0.71925        0.81061        0.27083   
O        0.71925        0.81061        0.3125    
O        0.70488        0.82026        0.33333   
O        0.70488        0.82026        0.25      
O        0.6901         0.82926        0.27083   
O        0.6901         0.82926        0.3125    
O        0.67492        0.83757        0.33333   
O        0.67492        0.83757        0.25      
O        0.65937        0.84518        0.27083   
O        0.65937        0.84518        0.3125    
O        0.64349        0.85208        0.33333   
O        0.64349        0.85208        0.25      
O        0.62732        0.85824        0.27083   
O        0.62732        0.85824        0.3125    
O        0.61088        0.86366        0.33333   
O        0.61088        0.86366        0.25      
O        0.59421        0.86834        0.27083   
O        0.59421        0.86834        0.3125    
O        0.57735        0.87225        0.33333   
O        0.57735        0.87225        0.25      
O        0.56033        0.87537        0.27083   
O        0.56033        0.87537        0.3125    
O        0.54319        0.87773        0.33333   
O        0.54319        0.87773        0.25      
O        0.52595        0.87931        0.27083   
O        0.52595        0.87931        0.3125    
O        0.50865        0.8801         0.33333   
O        0.50865        0.8801         0.25      
O        0.49135        0.8801         0.27083   
O        0.49135        0.8801         0.3125    
O        0.47405        0.87931        0.33333   
O        0.47405        0.87931        0.25      
O        0.45681        0.87773        0.27083   
O        0.45681        0.87773        0.3125    
O        0.43967        0.87537        0.33333   
O        0.43967        0.87537        0.25      
O        0.42265        0.87225        0.27083   
O        0.42265        0.87225        0.3125    
O        0.40579        0.86834        0.33333   
O        0.40579        0.86834        0.25      
O        0.38912        0.86366        0.27083   
O        0.38912        0.86366        0.3125    
O        0.37268        0.85824        0.33333   
O        0.37268        0.85824        0.25      
O        0.35651        0.85208        0.27083   
O        0.35651        0.85208        0.3125    
O        0.34063        0.84518        0.33333   
O        0.34063        0.84518        0.25      
O        0.32508        0.83757        0.27083   
O        0.32508        0.83757        0.3125    
O        0.3099         0.82926        0.33333   
O        0.3099         0.82926        0.25      
O        0.29512        0.82026        0.27083   
O        0.29512        0.82026        0.3125    
O        0.28075        0.81061        0.33333   
O        0.28075        0.81061        0.25      
O        0.26684        0.80031        0.27083   
O        0.26684        0.80031        0.3125    
O        0.25341        0.78938        0.33333   
O        0.25341        0.78938        0.25      
O        0.2405         0.77785        0.27083   
O        0.2405         0.77785        0.3125    
O        0.22812        0.76576        0.33333   
O        0.22812        0.76576        0.25      
O        0.21631        0.75312        0.27083   
O        0.21631        0.75312        0.3125    
O        0.20508        0.73994        0.33333   
O        0.20508        0.73994        0.25      
O        0.19447        0.72627        0.27083   
O        0.19447        0.72627        0.3125    
O        0.18449        0.71213        0.33333   
O        0.18449        0.71213        0.25      
O        0.17516        0.69754        0.27083   
O        0.17516        0.69754        0.3125    
O        0.1665         0.68256        0.33333   
O        0.1665         0.68256        0.25      
O        0.15854        0.66718        0.27083   
O        0.15854        0.66718        0.3125    
O        0.15128        0.65146        0.33333   
O        0.15128        0.65146        0.25      
O        0.14475        0.63544        0.27083   
O        0.14475        0.63544        0.3125    
O        0.13896        0.61913        0.33333   
O        0.13896        0.61913        0.25      
O        0.1339         0.60257        0.27083   
O        0.1339         0.60257        0.3125    
O        0.12961        0.58581        0.33333   
O        0.12961        0.58581        0.25      
O        0.12609        0.56885        0.27083   
O        0.12609        0.56885        0.3125    
O        0.12334        0.55177        0.33333   
O        0.12334        0.55177        0.25      
O        0.12138        0.53457        0.27083   
O        0.12138        0.53457        0.3125    
O        0.1202         0.51731        0.33333   
O        0.1202         0.51731        0.25      
O        0.1198         0.5            0.27083   
O        0.1198         0.5            0.3125    
O        0.1202         0.48269        0.33333   
O        0.1202         0.48269        0.25      
O        0.12138        0.46543        0.27083   
O        0.12138        0.46543        0.3125    
O        0.12334        0.44823        0.33333   
O        0.12334        0.44823        0.25      
O        0.12609        0.43115        0.27083   
O        0.12609        0.43115        0.3125    
O        0.12961        0.41419        0.33333   
O        0.12961        0.41419        0.25      
O        0.1339         0.39743        0.27083   
O        0.1339         0.39743        0.3125    
O        0.13896        0.38087        0.33333   
O        0.13896        0.38087        0.25      
O        0.14475        0.36456        0.27083   
O        0.14475        0.36456        0.3125    
O        0.15128        0.34854        0.33333   
O        0.15128        0.34854        0.25      
O        0.15854        0.33282        0.27083   
O        0.15854        0.33282        0.3125    
O        0.1665         0.31744        0.33333   
O        0.1665         0.31744        0.25      
O        0.17516        0.30246        0.27083   
O        0.17516        0.30246        0.3125    
O        0.18449        0.28787        0.33333   
O        0.18449        0.28787        0.25      
O        0.19447        0.27373        0.27083   
O        0.19447        0.27373        0.3125    
O        0.20508        0.26006        0.33333   
O        0.20508        0.26006        0.25      
O        0.21631        0.24688        0.27083   
O        0.21631        0.24688        0.3125    
O        0.22812        0.23424        0.33333   
O        0.22812        0.23424        0.25      
O        0.2405         0.22215        0.27083   
O        0.2405         0.22215        0.3125    
O        0.25341        0.21062        0.33333   
O        0.25341        0.21062        0.25      
O        0.26684        0.19969        0.27083   
O        0.26684        0.19969        0.3125    
O        0.28075        0.18939        0.33333   
O        0.28075        0.18939        0.25      
O        0.29512        0.17974        0.27083   
O        0.29512        0.17974        0.3125    
O        0.3099         0.17074        0.33333   
O        0.3099         0.17074        0.25      
O        0.32508        0.16243        0.27083   
O        0.32508        0.16243        0.3125    
O        0.34063        0.15482        0.33333   
O        0.34063        0.15482        0.25      
O        0.35651        0.14792        0.27083   
O        0.35651        0.14792        0.3125    
O        0.37268        0.14176        0.33333   
O        0.37268        0.14176        0.25      
O        0.38912        0.13634        0.27083   
O        0.38912        0.13634        0.3125    
O        0.40579        0.13166        0.33333   
O        0.40579        0.13166        0.25      
O        0.42265        0.12775        0.27083   
O        0.42265        0.12775        0.3125    
O        0.43967        0.12463        0.33333   
O        0.43967        0.12463        0.25      
O        0.45681        0.12227        0.27083   
O        0.45681        0.12227        0.3125    
O        0.47405        0.12069        0.33333   
O        0.47405        0.12069        0.25      
O        0.49135        0.1199         0.27083   
O        0.49135        0.1199         0.3125    
O        0.50865        0.1199         0.33333   
O        0.50865        0.1199         0.25      
O        0.52595        0.12069        0.27083   
O        0.52595        0.12069        0.3125    
O        0.54319        0.12227        0.33333   
O        0.54319        0.12227        0.25      
O        0.56033        0.12463        0.27083   
O        0.56033        0.12463        0.3125    
O        0.57735        0.12775        0.33333   
O        0.57735        0.12775        0.25      
O        0.59421        0.13166        0.27083   
O        0.59421        0.13166        0.3125    
O        0.61088        0.13634        0.33333   
O        0.61088        0.13634        0.25      
O        0.62732        0.14176        0.27083   
O        0.62732        0.14176        0.3125    
O        0.64349        0.14792        0.33333   
O        0.64349        0.14792        0.25      
O        0.65937        0.15482        0.27083   
O        0.65937        0.15482        0.3125    
O        0.67492        0.16243        0.33333   
O        0.67492        0.16243        0.25      
O        0.6901         0.17074        0.27083   
O        0.6901         0.17074        0.3125    
O        0.70488        0.17974        0.33333   
O        0.70488        0.17974        0.25      
O        0.71925        0.18939        0.27083   
O        0.71925        0.18939        0.3125    
O        0.73316        0.19969        0.33333   
O        0.73316        0.19969        0.25      
O        0.74659        0.21062        0.27083   
O        0.74659        0.21062        0.3125    
O        0.7595         0.22215        0.33333   
O        0.7595         0.22215        0.25      
O        0.77188        0.23424        0.27083   
O        0.77188        0.23424        0.3125    
O        0.78369        0.24688        0.33333   
O        0.78369        0.24688        0.25      
O        0.79492        0.26006        0.27083   
O        0.79492        0.26006        0.3125    
O        0.80553        0.27373        0.33333   
O        0.80553        0.27373        0.25      
O        0.81551        0.28787        0.27083   
O        0.81551        0.28787        0.3125    
O        0.82484        0.30246        0.33333   
O        0.82484        0.30246        0.25      
O        0.8335         0.31744        0.27083   
O        0.8335         0.31744        0.3125    
O        0.84146        0.33282        0.33333   
O        0.84146        0.33282        0.25      
O        0.84872        0.34854        0.27083   
O        0.84872        0.34854        0.3125    
O        0.85525        0.36456        0.33333   
O        0.85525        0.36456        0.25      
O        0.86104        0.38087        0.27083   
O        0.86104        0.38087        0.3125    
O        0.8661         0.39743        0.33333   
O        0.8661         0.39743        0.25      
O        0.87039        0.41419        0.27083   
O        0.87039        0.41419        0.3125    
O        0.87391        0.43115        0.33333   
O        0.87391        0.43115        0.25      
O        0.87666        0.44823        0.27083   
O        0.87666        0.44823        0.3125    
O        0.87862        0.46543        0.33333   
O        0.87862        0.46543        0.25      
O        0.8798         0.48269        0.27083   
O        0.8798         0.48269        0.3125    
O        0.8802         0.5            0.33333   
O        0.8802         0.5            0.375     
O        0.8798         0.51731        0.39583   
O        0.8798         0.51731        0.4375    
O        0.87862        0.53457        0.45833   
O        0.87862        0.53457        0.375     
O        0.87666        0.55177        0.39583   
O        0.87666        0.55177        0.4375    
O        0.87391        0.56885        0.45833   
O        0.87391        0.56885        0.375     
O        0.87039        0.58581        0.39583   
O        0.87039        0.58581        0.4375    
O        0.8661         0.60257        0.45833   
O        0.8661         0.60257        0.375     
O        0.86104        0.61913        0.39583   
O        0.86104        0.61913        0.4375    
O        0.85525        0.63544        0.45833   
O        0.85525        0.63544        0.375     
O        0.84872        0.65146        0.39583   
O        0.84872        0.65146        0.4375    
O        0.84146        0.66718        0.45833   
O        0.84146        0.66718        0.375     
O        0.8335         0.68256        0.39583   
O        0.8335         0.68256        0.4375    
O        0.82484        0.69754        0.45833   
O        0.82484        0.69754        0.375     
O        0.81551        0.71213        0.39583   
O        0.81551        0.71213        0.4375    
O        0.80553        0.72627        0.45833   
O        0.80553        0.72627        0.375     
O        0.79492        0.73994        0.39583   
O        0.79492        0.73994        0.4375    
O        0.78369        0.75312        0.45833   
O        0.78369        0.75312        0.375     
O        0.77188        0.76576        0.39583   
O        0.77188        0.76576        0.4375    
O        0.7595         0.77785        0.45833   
O        0.7595         0.77785        0.375     
O        0.74659        0.78938        0.39583   
O        0.74659        0.78938        0.4375    
O        0.73316        0.80031        0.45833   
O        0.73316        0.80031        0.375     
O        0.71925        0.81061        0.39583   
O        0.71925        0.81061        0.4375    
O        0.70488        0.82026        0.45833   
O        0.70488        0.82026        0.375     
O        0.6901         0.82926        0.39583   
O        0.6901         0.82926        0.4375    
O        0.67492        0.83757        0.45833   
O        0.67492        0.83757        0.375     
O        0.65937        0.84518        0.39583   
O        0.65937        0.84518        0.4375    
O        0.64349        0.85208        0.45833   
O        0.64349        0.85208        0.375     
O        0.62732        0.85824        0.39583   
O        0.62732        0.85824        0.4375    
O        0.61088        0.86366        0.45833   
O        0.61088        0.86366        0.375     
O        0.59421        0.86834        0.39583   
O        0.59421        0.86834        0.4375    
O        0.57735        0.87225        0.45833   
O        0.57735        0.87225        0.375     
O        0.56033        0.87537        0.39583   
O        0.56033        0.87537        0.4375    
O        0.54319        0.87773        0.45833   
O        0.54319        0.87773        0.375     
O        0.52595        0.87931        0.39583   
O        0.52595        0.87931        0.4375    
O        0.50865        0.8801         0.45833   
O        0.50865        0.8801         0.375     
O        0.49135        0.8801         0.39583   
O        0.49135        0.8801         0.4375    
O        0.47405        0.87931        0.45833   
O        0.47405        0.87931        0.375     
O        0.45681        0.87773        0.39583   
O        0.45681        0.87773        0.4375    
O        0.43967        0.87537        0.45833   
O        0.43967        0.87537        0.375     
O        0.42265        0.87225        0.39583   
O        0.42265        0.87225        0.4375    
O        0.40579        0.86834        0.45833   
O        0.40579        0.86834        0.375     
O        0.38912        0.86366        0.39583   
O        0.38912        0.86366        0.4375    
O        0.37268        0.85824        0.45833   
O        0.37268        0.85824        0.375     
O        0.35651        0.85208        0.39583   
O        0.35651        0.85208        0.4375    
O        0.34063        0.84518        0.45833   
O        0.34063        0.84518        0.375     
O        0.32508        0.83757        0.39583   
O        0.32508        0.83757        0.4375    
O        0.3099         0.82926        0.45833   
O        0.3099         0.82926        0.375     
O        0.29512        0.82026        0.39583   
O        0.29512        0.82026        0.4375    
O        0.28075        0.81061        0.45833   
O        0.28075        0.81061        0.375     
O        0.26684        0.80031        0.39583   
O        0.26684        0.80031        0.4375    
O        0.25341        0.78938        0.45833   
O        0.25341        0.78938        0.375     
O        0.2405         0.77785        0.39583   
O        0.2405         0.77785        0.4375    
O        0.22812        0.76576        0.45833   
O        0.22812        0.76576        0.375     
O        0.21631        0.75312        0.39583   
O        0.21631        0.75312        0.4375    
O        0.20508        0.73994        0.45833   
O        0.20508        0.73994        0.375     
O        0.19447        0.72627        0.39583   
O        0.19447        0.72627        0.4375    
O        0.18449        0.71213        0.45833   
O        0.18449        0.71213        0.375     
O        0.17516        0.69754        0.39583   
O        0.17516        0.69754        0.4375    
O        0.1665         0.68256        0.45833   
O        0.1665         0.68256        0.375     
O        0.15854        0.66718        0.39583   
O        0.15854        0.66718        0.4375    
O        0.15128        0.65146        0.45833   
O        0.15128        0.65146        0.375     
O        0.14475        0.63544        0.39583   
O        0.14475        0.63544        0.4375    
O        0.13896        0.61913        0.45833   
O        0.13896        0.61913        0.375     
O        0.1339         0.60257        0.39583   
O        0.1339         0.60257        0.4375    
O        0.12961        0.58581        0.45833   
O        0.12961        0.58581        0.375     
O        0.12609        0.56885        0.39583   
O        0.12609        0.56885        0.4375    
O        0.12334        0.55177        0.45833   
O        0.12334        0.55177        0.375     
O        0.12138        0.53457        0.39583   
O        0.12138        0.53457        0.4375    
O        0.1202         0.51731        0.45833   
O        0.1202         0.51731        0.375     
O        0.1198         0.5            0.39583   
O        0.1198         0.5            0.4375    
O        0.1202         0.48269        0.45833   
O        0.1202         0.48269        0.375     
O        0.12138        0.46543        0.39583   
O        0.12138        0.46543        0.4375    
O        0.12334        0.44823        0.45833   
O        0.12334        0.44823        0.375     
O        0.12609        0.43115        0.39583   
O        0.12609        0.43115        0.4375    
O        0.12961        0.41419        0.45833   
O        0.12961        0.41419        0.375     
O        0.1339         0.39743        0.39583   
O        0.1339         0.39743        0.4375    
O        0.13896        0.38087        0.45833   
O        0.13896        0.38087        0.375     
O        0.14475        0.36456        0.39583   
O        0.14475        0.36456        0.4375    
O        0.15128        0.34854        0.45833   
O        0.15128        0.34854        0.375     
O        0.15854        0.33282        0.39583   
O        0.15854        0.33282        0.4375    
O        0.1665         0.31744        0.45833   
O        0.1665         0.31744        0.375     
O        0.17516        0.30246        0.39583   
O        0.17516        0.30246        0.4375    
O        0.18449        0.28787        0.45833   
O        0.18449        0.28787        0.375     
O        0.19447        0.27373        0.39583   
O        0.19447        0.27373        0.4375    
O        0.20508        0.26006        0.45833   
O        0.20508        0.26006        0.375     
O        0.21631        0.24688        0.39583   
O        0.21631        0.24688        0.4375    
O        0.22812        0.23424        0.45833   
O        0.22812        0.23424        0.375     
O        0.2405         0.22215        0.39583   
O        0.2405         0.22215        0.4375    
O        0.25341        0.21062        0.45833   
O        0.25341        0.21062        0.375     
O        0.26684        0.19969        0.39583   
O        0.26684        0.19969        0.4375    
O        0.28075        0.18939        0.45833   
O        0.28075        0.18939        0.375     
O        0.29512        0.17974        0.39583   
O        0.29512        0.17974        0.4375    
O        0.3099         0.17074        0.45833   
O        0.3099         0.17074        0.375     
O        0.32508        0.16243        0.39583   
O        0.32508        0.16243        0.4375    
O        0.34063        0.15482        0.45833   
O        0.34063        0.15482        0.375     
O        0.35651        0.14792        0.39583   
O        0.35651        0.14792        0.4375    
O        0.37268        0.14176        0.45833   
O        0.37268        0.14176        0.375     
O        0.38912        0.13634        0.39583   
O        0.38912        0.13634        0.4375    
O        0.40579        0.13166        0.45833   
O        0.40579        0.13166        0.375     
O        0.42265        0.12775        0.39583   
O        0.42265        0.12775        0.4375    
O        0.43967        0.12463        0.45833   
O        0.43967        0.12463        0.375     
O        0.45681        0.12227        0.39583   
O        0.45681        0.12227        0.4375    
O        0.47405        0.12069        0.45833   
O        0.47405        0.12069        0.375     
O        0.49135        0.1199         0.39583   
O        0.49135        0.1199         0.4375    
O        0.50865        0.1199         0.45833   
O        0.50865        0.1199         0.375     
O        0.52595        0.12069        0.39583   
O        0.52595        0.12069        0.4375    
O        0.54319        0.12227        0.45833   
O        0.54319        0.12227        0.375     
O        0.56033        0.12463        0.39583   
O        0.56033        0.12463        0.4375    
O        0.57735        0.12775        0.45833   
O        0.57735        0.12775        0.375     
O        0.59421        0.13166        0.39583   
O        0.59421        0.13166        0.4375    
O        0.61088        0.13634        0.45833   
O        0.61088        0.13634        0.375     
O        0.62732        0.14176        0.39583   
O        0.62732        0.14176        0.4375    
O        0.64349        0.14792        0.45833   
O        0.64349        0.14792        0.375     
O        0.65937        0.15482        0.39583   
O        0.65937        0.15482        0.4375    
O        0.67492        0.16243        0.45833   
O        0.67492        0.16243        0.375     
O        0.6901         0.17074        0.39583   
O        0.6901         0.17074        0.4375    
O        0.70488        0.17974        0.45833   
O        0.70488        0.17974        0.375     
O        0.71925        0.18939        0.39583   
O        0.71925        0.18939        0.4375    
O        0.73316        0.19969        0.45833   
O        0.73316        0.19969        0.375     
O        0.74659        0.21062        0.39583   
O        0.74659        0.21062        0.4375    
O        0.7595         0.22215        0.45833   
O        0.7595         0.22215        0.375     
O        0.77188        0.23424        0.39583   
O        0.77188        0.23424        0.4375    
O        0.78369        0.24688        0.45833   
O        0.78369        0.24688        0.375     
O        0.79492        0.26006        0.39583   
O        0.79492        0.26006        0.4375    
O        0.80553        0.27373        0.45833   
O        0.80553        0.27373        0.375     
O        0.81551        0.28787        0.39583   
O        0.81551        0.28787        0.4375    
O        0.82484        0.30246        0.45833   
O        0.82484        0.30246        0.375     
O        0.8335         0.31744        0.39583   
O        0.8335         0.31744        0.4375    
O        0.84146        0.33282        0.45833   
O        0.84146        0.33282        0.375     
O        0.84872        0.34854        0.39583   
O        0.84872        0.34854        0.4375    
O        0.85525        0.36456        0.45833   
O        0.85525        0.36456        0.375     
O        0.86104        0.38087        0.39583   
O        0.86104        0.38087        0.4375    
O        0.8661         0.39743        0.45833   
O        0.8661         0.39743        0.375     
O        0.87039        0.41419        0.39583   
O        0.87039        0.41419        0.4375    
O        0.87391        0.43115        0.45833   
O        0.87391        0.43115        0.375     
O        0.87666        0.44823        0.39583   
O        0.87666        0.44823        0.4375    
O        0.87862        0.46543        0.45833   
O        0.87862        0.46543        0.375     
O        0.8798         0.48269        0.39583   
O        0.8798         0.48269        0.4375    
O        0.8802         0.5            0.45833   
O        0.8802         0.5            0.5       
O        0.8798         0.51731        0.52083   
O        0.8798         0.51731        0.5625    
O        0.87862        0.53457        0.58333   
O        0.87862        0.53457        0.5       
O        0.87666        0.55177        0.52083   
O        0.87666        0.55177        0.5625    
O        0.87391        0.56885        0.58333   
O        0.87391        0.56885        0.5       
O        0.87039        0.58581        0.52083   
O        0.87039        0.58581        0.5625    
O        0.8661         0.60257        0.58333   
O        0.8661         0.60257        0.5       
O        0.86104        0.61913        0.52083   
O        0.86104        0.61913        0.5625    
O        0.85525        0.63544        0.58333   
O        0.85525        0.63544        0.5       
O        0.84872        0.65146        0.52083   
O        0.84872        0.65146        0.5625    
O        0.84146        0.66718        0.58333   
O        0.84146        0.66718        0.5       
O        0.8335         0.68256        0.52083   
O        0.8335         0.68256        0.5625    
O        0.82484        0.69754        0.58333   
O        0.82484        0.69754        0.5       
O        0.81551        0.71213        0.52083   
O        0.81551        0.71213        0.5625    
O        0.80553        0.72627        0.58333   
O        0.80553        0.72627        0.5       
O        0.79492        0.73994        0.52083   
O        0.79492        0.73994        0.5625    
O        0.78369        0.75312        0.58333   
O        0.78369        0.75312        0.5       
O        0.77188        0.76576        0.52083   
O        0.77188        0.76576        0.5625    
O        0.7595         0.77785        0.58333   
O        0.7595         0.77785        0.5       
O        0.74659        0.78938        0.52083   
O        0.74659        0.78938        0.5625    
O        0.73316        0.80031        0.58333   
O        0.73316        0.80031        0.5       
O        0.71925        0.81061        0.52083   
O        0.71925        0.81061        0.5625    
O        0.70488        0.82026        0.58333   
O        0.70488        0.82026        0.5       
O        0.6901         0.82926        0.52083   
O        0.6901         0.82926        0.5625    
O        0.67492        0.83757        0.58333   
O        0.67492        0.83757        0.5       
O        0.65937        0.84518        0.52083   
O        0.65937        0.84518        0.5625    
O        0.64349        0.85208        0.58333   
O        0.64349        0.85208        0.5       
O        0.62732        0.85824        0.52083   
O        0.62732        0.85824        0.5625    
O        0.61088        0.86366        0.58333   
O        0.61088        0.86366        0.5       
O        0.59421        0.86834        0.52083   
O        0.59421        0.86834        0.5625    
O        0.57735        0.87225        0.58333   
O        0.57735        0.87225        0.5       
O        0.56033        0.87537        0.52083   
O        0.56033        0.87537        0.5625    
O        0.54319        0.87773        0.58333   
O        0.54319        0.87773        0.5       
O        0.52595        0.87931        0.52083   
O        0.52595        0.87931        0.5625    
O        0.50865        0.8801         0.58333   
O        0.50865        0.8801         0.5       
O        0.49135        0.8801         0.52083   
O        0.49135        0.8801         0.5625    
O        0.47405        0.87931        0.58333   
O        0.47405        0.87931        0.5       
O        0.45681        0.87773        0.52083   
O        0.45681        0.87773        0.5625    
O        0.43967        0.87537        0.58333   
O        0.43967        0.87537        0.5       
O        0.42265        0.87225        0.52083   
O        0.42265        0.87225        0.5625    
O        0.40579        0.86834        0.58333   
O        0.40579        0.86834        0.5       
O        0.38912        0.86366        0.52083   
O        0.38912        0.86366        0.5625    
O        0.37268        0.85824        0.58333   
O        0.37268        0.85824        0.5       
O        0.35651        0.85208        0.52083   
O        0.35651        0.85208        0.5625    
O        0.34063        0.84518        0.58333   
O        0.34063        0.84518        0.5       
O        0.32508        0.83757        0.52083   
O        0.32508        0.83757        0.5625    
O        0.3099         0.82926        0.58333   
O        0.3099         0.82926        0.5       
O        0.29512        0.82026        0.52083   
O        0.29512        0.82026        0.5625    
O        0.28075        0.81061        0.58333   
O        0.28075        0.81061        0.5       
O        0.26684        0.80031        0.52083   
O        0.26684        0.80031        0.5625    
O        0.25341        0.78938        0.58333   
O        0.25341        0.78938        0.5       
O        0.2405         0.77785        0.52083   
O        0.2405         0.77785        0.5625    
O        0.22812        0.76576        0.58333   
O        0.22812        0.76576        0.5       
O        0.21631        0.75312        0.52083   
O        0.21631        0.75312        0.5625    
O        0.20508        0.73994        0.58333   
O        0.20508        0.73994        0.5       
O        0.19447        0.72627        0.52083   
O        0.19447        0.72627        0.5625    
O        0.18449        0.71213        0.58333   
O        0.18449        0.71213        0.5       
O        0.17516        0.69754        0.52083   
O        0.17516        0.69754        0.5625    
O        0.1665         0.68256        0.58333   
O        0.1665         0.68256        0.5       
O        0.15854        0.66718        0.52083   
O        0.15854        0.66718        0.5625    
O        0.15128        0.65146        0.58333   
O        0.15128        0.65146        0.5       
O        0.14475        0.63544        0.52083   
O        0.14475        0.63544        0.5625    
O        0.13896        0.61913        0.58333   
O        0.13896        0.61913        0.5       
O        0.1339         0.60257        0.52083   
O        0.1339         0.60257        0.5625    
O        0.12961        0.58581        0.58333   
O        0.12961        0.58581        0.5       
O        0.12609        0.56885        0.52083   
O        0.12609        0.56885        0.5625    
O        0.12334        0.55177        0.58333   
O        0.12334        0.55177        0.5       
O        0.12138        0.53457        0.52083   
O        0.12138        0.53457        0.5625    
O        0.1202         0.51731        0.58333   
O        0.1202         0.51731        0.5       
O        0.1198         0.5            0.52083   
O        0.1198         0.5            0.5625    
O        0.1202         0.48269        0.58333   
O        0.1202         0.48269        0.5       
O        0.12138        0.46543        0.52083   
O        0.12138        0.46543        0.5625    
O        0.12334        0.44823        0.58333   
O        0.12334        0.44823        0.5       
O        0.12609        0.43115        0.52083   
O        0.12609        0.43115        0.5625    
O        0.12961        0.41419        0.58333   
O        0.12961        0.41419        0.5       
O        0.1339         0.39743        0.52083   
O        0.1339         0.39743        0.5625    
O        0.13896        0.38087        0.58333   
O        0.13896        0.38087        0.5       
O        0.14475        0.36456        0.52083   
O        0.14475        0.36456        0.5625    
O        0.15128        0.34854        0.58333   
O        0.15128        0.34854        0.5       
O        0.15854        0.33282        0.52083   
O        0.15854        0.33282        0.5625    
O        0.1665         0.31744        0.58333   
O        0.1665         0.31744        0.5       
O        0.17516        0.30246        0.52083   
O        0.17516        0.30246        0.5625    
O        0.18449        0.28787        0.58333   
O        0.18449        0.28787        0.5       
O        0.19447        0.27373        0.52083   
O        0.19447        0.27373        0.5625    
O        0.20508        0.26006        0.58333   
O        0.20508        0.26006        0.5       
O        0.21631        0.24688        0.52083   
O        0.21631        0.24688        0.5625    
O        0.22812        0.23424        0.58333   
O        0.22812        0.23424        0.5       
O        0.2405         0.22215        0.52083   
O        0.2405         0.22215        0.5625    
O        0.25341        0.21062        0.58333   
O        0.25341        0.21062        0.5       
O        0.26684        0.19969        0.52083   
O        0.26684        0.19969        0.5625    
O        0.28075        0.18939        0.58333   
O        0.28075        0.18939        0.5       
O        0.29512        0.17974        0.52083   
O        0.29512        0.17974        0.5625    
O        0.3099         0.17074        0.58333   
O        0.3099         0.17074        0.5       
O        0.32508        0.16243        0.52083   
O        0.32508        0.16243        0.5625    
O        0.34063        0.15482        0.58333   
O        0.34063        0.15482        0.5       
O        0.35651        0.14792        0.52083   
O        0.35651        0.14792        0.5625    
O        0.37268        0.14176        0.58333   
O        0.37268        0.14176        0.5       
O        0.38912        0.13634        0.52083   
O        0.38912        0.13634        0.5625    
O        0.40579        0.13166        0.58333   
O        0.40579        0.13166        0.5       
O        0.42265        0.12775        0.52083   
O        0.42265        0.12775        0.5625    
O        0.43967        0.12463        0.58333   
O        0.43967        0.12463        0.5       
O        0.45681        0.12227        0.52083   
O        0.45681        0.12227        0.5625    
O        0.47405        0.12069        0.58333   
O        0.47405        0.12069        0.5       
O        0.49135        0.1199         0.52083   
O        0.49135        0.1199         0.5625    
O        0.50865        0.1199         0.58333   
O        0.50865        0.1199         0.5       
O        0.52595        0.12069        0.52083   
O        0.52595        0.12069        0.5625    
O        0.54319        0.12227        0.58333   
O        0.54319        0.12227        0.5       
O        0.56033        0.12463        0.52083   
O        0.56033        0.12463        0.5625    
O        0.57735        0.12775        0.58333   
O        0.57735        0.12775        0.5       
O        0.59421        0.13166        0.52083   
O        0.59421        0.13166        0.5625    
O        0.61088        0.13634        0.58333   
O        0.61088        0.13634        0.5       
O        0.62732        0.14176        0.52083   
O        0.62732        0.14176        0.5625    
O        0.64349        0.14792        0.58333   
O        0.64349        0.14792        0.5       
O        0.65937        0.15482        0.52083   
O        0.65937        0.15482        0.5625    
O        0.67492        0.16243        0.58333   
O        0.67492        0.16243        0.5       
O        0.6901         0.17074        0.52083   
O        0.6901         0.17074        0.5625    
O        0.70488        0.17974        0.58333   
O        0.70488        0.17974        0.5       
O        0.71925        0.18939        0.52083   
O        0.71925        0.18939        0.5625    
O        0.73316        0.19969        0.58333   
O        0.73316        0.19969        0.5       
O        0.74659        0.21062        0.52083   
O        0.74659        0.21062        0.5625    
O        0.7595         0.22215        0.58333   
O        0.7595         0.22215        0.5       
O        0.77188        0.23424        0.52083   
O        0.77188        0.23424        0.5625    
O        0.78369        0.24688        0.58333   
O        0.78369        0.24688        0.5       
O        0.79492        0.26006        0.52083   
O        0.79492        0.26006        0.5625    
O        0.80553        0.27373        0.58333   
O        0.80553        0.27373        0.5       
O        0.81551        0.28787        0.52083   
O        0.81551        0.28787        0.5625    
O        0.82484        0.30246        0.58333   
O        0.82484        0.30246        0.5       
O        0.8335         0.31744        0.52083   
O        0.8335         0.31744        0.5625    
O        0.84146        0.33282        0.58333   
O        0.84146        0.33282        0.5       
O        0.84872        0.34854        0.52083   
O        0.84872        0.34854        0.5625    
O        0.85525        0.36456        0.58333   
O        0.85525        0.36456        0.5       
O        0.86104        0.38087        0.52083   
O        0.86104        0.38087        0.5625    
O        0.8661         0.39743        0.58333   
O        0.8661         0.39743        0.5       
O        0.87039        0.41419        0.52083   
O        0.87039        0.41419        0.5625    
O        0.87391        0.43115        0.58333   
O        0.87391        0.43115        0.5       
O        0.87666        0.44823        0.52083   
O        0.87666        0.44823        0.5625    
O        0.87862        0.46543        0.58333   
O        0.87862        0.46543        0.5       
O        0.8798         0.48269        0.52083   
O        0.8798         0.48269        0.5625    
O        0.8802         0.5            0.58333   
O        0.8802         0.5            0.625     
O        0.8798         0.51731        0.64583   
O        0.8798         0.51731        0.6875    
O        0.87862        0.53457        0.70833   
O        0.87862        0.53457        0.625     
O        0.87666        0.55177        0.64583   
O        0.87666        0.55177        0.6875    
O        0.87391        0.56885        0.70833   
O        0.87391        0.56885        0.625     
O        0.87039        0.58581        0.64583   
O        0.87039        0.58581        0.6875    
O        0.8661         0.60257        0.70833   
O        0.8661         0.60257        0.625     
O        0.86104        0.61913        0.64583   
O        0.86104        0.61913        0.6875    
O        0.85525        0.63544        0.70833   
O        0.85525        0.63544        0.625     
O        0.84872        0.65146        0.64583   
O        0.84872        0.65146        0.6875    
O        0.84146        0.66718        0.70833   
O        0.84146        0.66718        0.625     
O        0.8335         0.68256        0.64583   
O        0.8335         0.68256        0.6875    
O        0.82484        0.69754        0.70833   
O        0.82484        0.69754        0.625     
O        0.81551        0.71213        0.64583   
O        0.81551        0.71213        0.6875    
O        0.80553        0.72627        0.70833   
O        0.80553        0.72627        0.625     
O        0.79492        0.73994        0.64583   
O        0.79492        0.73994        0.6875    
O        0.78369        0.75312        0.70833   
O        0.78369        0.75312        0.625     
O        0.77188        0.76576        0.64583   
O        0.77188        0.76576        0.6875    
O        0.7595         0.77785        0.70833   
O        0.7595         0.77785        0.625     
O        0.74659        0.78938        0.64583   
O        0.74659        0.78938        0.6875    
O        0.73316        0.80031        0.70833   
O        0.73316        0.80031        0.625     
O        0.71925        0.81061        0.64583   
O        0.71925        0.81061        0.6875    
O        0.70488        0.82026        0.70833   
O        0.70488        0.82026        0.625     
O        0.6901         0.82926        0.64583   
O        0.6901         0.82926        0.6875    
O        0.67492        0.83757        0.70833   
O        0.67492        0.83757        0.625     
O        0.65937        0.84518        0.64583   
O        0.65937        0.84518        0.6875    
O        0.64349        0.85208        0.70833   
O        0.64349        0.85208        0.625     
O        0.62732        0.85824        0.64583   
O        0.62732        0.85824        0.6875    
O        0.61088        0.86366        0.70833   
O        0.61088        0.86366        0.625     
O        0.59421        0.86834        0.64583   
O        0.59421        0.86834        0.6875    
O        0.57735        0.87225        0.70833   
O        0.57735        0.87225        0.625     
O        0.56033        0.87537        0.64583   
O        0.56033        0.87537        0.6875    
O        0.54319        0.87773        0.70833   
O        0.54319        0.87773        0.625     
O        0.52595        0.87931        0.64583   
O        0.52595        0.87931        0.6875    
O        0.50865        0.8801         0.70833   
O        0.50865        0.8801         0.625     
O        0.49135        0.8801         0.64583   
O        0.49135        0.8801         0.6875    
O        0.47405        0.87931        0.70833   
O        0.47405        0.87931        0.625     
O        0.45681        0.87773        0.64583   
O        0.45681        0.87773        0.6875    
O        0.43967        0.87537        0.70833   
O        0.43967        0.87537        0.625     
O        0.42265        0.87225        0.64583   
O        0.42265        0.87225        0.6875    
O        0.40579        0.86834        0.70833   
O        0.40579        0.86834        0.625     
O        0.38912        0.86366        0.64583   
O        0.38912        0.86366        0.6875    
O        0.37268        0.85824        0.70833   
O        0.37268        0.85824        0.625     
O        0.35651        0.85208        0.64583   
O        0.35651        0.85208        0.6875    
O        0.34063        0.84518        0.70833   
O        0.34063        0.84518        0.625     
O        0.32508        0.83757        0.64583   
O        0.32508        0.83757        0.6875    
O        0.3099         0.82926        0.70833   
O        0.3099         0.82926        0.625     
O        0.29512        0.82026        0.64583   
O        0.29512        0.82026        0.6875    
O        0.28075        0.81061        0.70833   
O        0.28075        0.81061        0.625     
O        0.26684        0.80031        0.64583   
O        0.26684        0.80031        0.6875    
O        0.25341        0.78938        0.70833   
O        0.25341        0.78938        0.625     
O        0.2405         0.77785        0.64583   
O        0.2405         0.77785        0.6875    
O        0.22812        0.76576        0.70833   
O        0.22812        0.76576        0.625     
O        0.21631        0.75312        0.64583   
O        0.21631        0.75312        0.6875    
O        0.20508        0.73994        0.70833   
O        0.20508        0.73994        0.625     
O        0.19447        0.72627        0.64583   
O        0.19447        0.72627        0.6875    
O        0.18449        0.71213        0.70833   
O        0.18449        0.71213        0.625     
O        0.17516        0.69754        0.64583   
O        0.17516        0.69754        0.6875    
O        0.1665         0.68256        0.70833   
O        0.1665         0.68256        0.625     
O        0.15854        0.66718        0.64583   
O        0.15854        0.66718        0.6875    
O        0.15128        0.65146        0.70833   
O        0.15128        0.65146        0.625     
O        0.14475        0.63544        0.64583   
O        0.14475        0.63544        0.6875    
O        0.13896        0.61913        0.70833   
O        0.13896        0.61913        0.625     
O        0.1339         0.60257        0.64583   
O        0.1339         0.60257        0.6875    
O        0.12961        0.58581        0.70833   
O        0.12961        0.58581        0.625     
O        0.12609        0.56885        0.64583   
O        0.12609        0.56885        0.6875    
O        0.12334        0.55177        0.70833   
O        0.12334        0.55177        0.625     
O        0.12138        0.53457        0.64583   
O        0.12138        0.53457        0.6875    
O        0.1202         0.51731        0.70833   
O        0.1202         0.51731        0.625     
O        0.1198         0.5            0.64583   
O        0.1198         0.5            0.6875    
O        0.1202         0.48269        0.70833   
O        0.1202         0.48269        0.625     
O        0.12138        0.46543        0.64583   
O        0.12138        0.46543        0.6875    
O        0.12334        0.44823        0.70833   
O        0.12334        0.44823        0.625     
O        0.12609        0.43115        0.64583   
O        0.12609        0.43115        0.6875    
O        0.12961        0.41419        0.70833   
O        0.12961        0.41419        0.625     
O        0.1339         0.39743        0.64583   
O        0.1339         0.39743        0.6875    
O        0.13896        0.38087        0.70833   
O        0.13896        0.38087        0.625     
O        0.14475        0.36456        0.64583   
O        0.14475        0.36456        0.6875    
O        0.15128        0.34854        0.70833   
O        0.15128        0.34854        0.625     
O        0.15854        0.33282        0.64583   
O        0.15854        0.33282        0.6875    
O        0.1665         0.31744        0.70833   
O        0.1665         0.31744        0.625     
O        0.17516        0.30246        0.64583   
O        0.17516        0.30246        0.6875    
O        0.18449        0.28787        0.70833   
O        0.18449        0.28787        0.625     
O        0.19447        0.27373        0.64583   
O        0.19447        0.27373        0.6875    
O        0.20508        0.26006        0.70833   
O        0.20508        0.26006        0.625     
O        0.21631        0.24688        0.64583   
O        0.21631        0.24688        0.6875    
O        0.22812        0.23424        0.70833   
O        0.22812        0.23424        0.625     
O        0.2405         0.22215        0.64583   
O        0.2405         0.22215        0.6875    
O        0.25341        0.21062        0.70833   
O        0.25341        0.21062        0.625     
O        0.26684        0.19969        0.64583   
O        0.26684        0.19969        0.6875    
O        0.28075        0.18939        0.70833   
O        0.28075        0.18939        0.625     
O        0.29512        0.17974        0.64583   
O        0.29512        0.17974        0.6875    
O        0.3099         0.17074        0.70833   
O        0.3099         0.17074        0.625     
O        0.32508        0.16243        0.64583   
O        0.32508        0.16243        0.6875    
O        0.34063        0.15482        0.70833   
O        0.34063        0.15482        0.625     
O        0.35651        0.14792        0.64583   
O        0.35651        0.14792        0.6875    
O        0.37268        0.14176        0.70833   
O        0.37268        0.14176        0.625     
O        0.38912        0.13634        0.64583   
O        0.38912        0.13634        0.6875    
O        0.40579        0.13166        0.70833   
O        0.40579        0.13166        0.625     
O        0.42265        0.12775        0.64583   
O        0.42265        0.12775        0.6875    
O        0.43967        0.12463        0.70833   
O        0.43967        0.12463        0.625     
O        0.45681        0.12227        0.64583   
O        0.45681        0.12227        0.6875    
O        0.47405        0.12069        0.70833   
O        0.47405        0.12069        0.625     
O        0.49135        0.1199         0.64583   
O        0.49135        0.1199         0.6875    
O        0.50865        0.1199         0.70833   
O        0.50865        0.1199         0.625     
O        0.52595        0.12069        0.64583   
O        0.52595        0.12069        0.6875    
O        0.54319        0.12227        0.70833   
O        0.54319        0.12227        0.625     
O        0.56033        0.12463        0.64583   
O        0.56033        0.12463        0.6875    
O        0.57735        0.12775        0.70833   
O        0.57735        0.12775        0.625     
O        0.59421        0.13166        0.64583   
O        0.59421        0.13166        0.6875    
O        0.61088        0.13634        0.70833   
O        0.61088        0.13634        0.625     
O        0.62732        0.14176        0.64583   
O        0.62732        0.14176        0.6875    
O        0.64349        0.14792        0.70833   
O        0.64349        0.14792        0.625     
O        0.65937        0.15482        0.64583   
O        0.65937        0.15482        0.6875    
O        0.67492        0.16243        0.70833   
O        0.67492        0.16243        0.625     
O        0.6901         0.17074        0.64583   
O        0.6901         0.17074        0.6875    
O        0.70488        0.17974        0.70833   
O        0.70488        0.17974        0.625     
O        0.71925        0.18939        0.64583   
O        0.71925        0.18939        0.6875    
O        0.73316        0.19969        0.70833   
O        0.73316        0.19969        0.625     
O        0.74659        0.21062        0.64583   
O        0.74659        0.21062        0.6875    
O        0.7595         0.22215        0.70833   
O        0.7595         0.22215        0.625     
O        0.77188        0.23424        0.64583   
O        0.77188        0.23424        0.6875    
O        0.78369        0.24688        0.70833   
O        0.78369        0.24688        0.625     
O        0.79492        0.26006        0.64583   
O        0.79492        0.26006        0.6875    
O        0.80553        0.27373        0.70833   
O        0.80553        0.27373        0.625     
O        0.81551        0.28787        0.64583   
O        0.81551        0.28787        0.6875    
O        0.82484        0.30246        0.70833   
O        0.82484        0.30246        0.625     
O        0.8335         0.31744        0.64583   
O        0.8335         0.31744        0.6875    
O        0.84146        0.33282        0.70833   
O        0.84146        0.33282        0.625     
O        0.84872        0.34854        0.64583   
O        0.84872        0.34854        0.6875    
O        0.85525        0.36456        0.70833   
O        0.85525        0.36456        0.625     
O        0.86104        0.38087        0.64583   
O        0.86104        0.38087        0.6875    
O        0.8661         0.39743        0.70833   
O        0.8661         0.39743        0.625     
O        0.87039        0.41419        0.64583   
O        0.87039        0.41419        0.6875    
O        0.87391        0.43115        0.70833   
O        0.87391        0.43115        0.625     
O        0.87666        0.44823        0.64583   
O        0.87666        0.44823        0.6875    
O        0.87862        0.46543        0.70833   
O        0.87862        0.46543        0.625     
O        0.8798         0.48269        0.64583   
O        0.8798         0.48269        0.6875    
O        0.8802         0.5            0.70833   
O        0.8802         0.5            0.75      
O        0.8798         0.51731        0.77083   
O        0.8798         0.51731        0.8125    
O        0.87862        0.53457        0.83333   
O        0.87862        0.53457        0.75      
O        0.87666        0.55177        0.77083   
O        0.87666        0.55177        0.8125    
O        0.87391        0.56885        0.83333   
O        0.87391        0.56885        0.75      
O        0.87039        0.58581        0.77083   
O        0.87039        0.58581        0.8125    
O        0.8661         0.60257        0.83333   
O        0.8661         0.60257        0.75      
O        0.86104        0.61913        0.77083   
O        0.86104        0.61913        0.8125    
O        0.85525        0.63544        0.83333   
O        0.85525        0.63544        0.75      
O        0.84872        0.65146        0.77083   
O        0.84872        0.65146        0.8125    
O        0.84146        0.66718        0.83333   
O        0.84146        0.66718        0.75      
O        0.8335         0.68256        0.77083   
O        0.8335         0.68256        0.8125    
O        0.82484        0.69754        0.83333   
O        0.82484        0.69754        0.75      
O        0.81551        0.71213        0.77083   
O        0.81551        0.71213        0.8125    
O        0.80553        0.72627        0.83333   
O        0.80553        0.72627        0.75      
O        0.79492        0.73994        0.77083   
O        0.79492        0.73994        0.8125    
O        0.78369        0.75312        0.83333   
O        0.78369        0.75312        0.75      
O        0.77188        0.76576        0.77083   
O        0.77188        0.76576        0.8125    
O        0.7595         0.77785        0.83333   
O        0.7595         0.77785        0.75      
O        0.74659        0.78938        0.77083   
O        0.74659        0.78938        0.8125    
O        0.73316        0.80031        0.83333   
O        0.73316        0.80031        0.75      
O        0.71925        0.81061        0.77083   
O        0.71925        0.81061        0.8125    
O        0.70488        0.82026        0.83333   
O        0.70488        0.82026        0.75      
O        0.6901         0.82926        0.77083   
O        0.6901         0.82926        0.8125    
O        0.67492        0.83757        0.83333   
O        0.67492        0.83757        0.75      
O        0.65937        0.84518        0.77083   
O        0.65937        0.84518        0.8125    
O        0.64349        0.85208        0.83333   
O        0.64349        0.85208        0.75      
O        0.62732        0.85824        0.77083   
O        0.62732        0.85824        0.8125    
O        0.61088        0.86366        0.83333   
O        0.61088        0.86366        0.75      
O        0.59421        0.86834        0.77083   
O        0.59421        0.86834        0.8125    
O        0.57735        0.87225        0.83333   
O        0.57735        0.87225        0.75      
O        0.56033        0.87537        0.77083   
O        0.56033        0.87537        0.8125    
O        0.54319        0.87773        0.83333   
O        0.54319        0.87773        0.75      
O        0.52595        0.87931        0.77083   
O        0.52595        0.87931        0.8125    
O        0.50865        0.8801         0.83333   
O        0.50865        0.8801         0.75      
O        0.49135        0.8801         0.77083   
O        0.49135        0.8801         0.8125    
O        0.47405        0.87931        0.83333   
O        0.47405        0.87931        0.75      
O        0.45681        0.87773        0.77083   
O        0.45681        0.87773        0.8125    
O        0.43967        0.87537        0.83333   
O        0.43967        0.87537        0.75      
O        0.42265        0.87225        0.77083   
O        0.42265        0.87225        0.8125    
O        0.40579        0.86834        0.83333   
O        0.40579        0.86834        0.75      
O        0.38912        0.86366        0.77083   
O        0.38912        0.86366        0.8125    
O        0.37268        0.85824        0.83333   
O        0.37268        0.85824        0.75      
O        0.35651        0.85208        0.77083   
O        0.35651        0.85208        0.8125    
O        0.34063        0.84518        0.83333   
O        0.34063        0.84518        0.75      
O        0.32508        0.83757        0.77083   
O        0.32508        0.83757        0.8125    
O        0.3099         0.82926        0.83333   
O        0.3099         0.82926        0.75      
O        0.29512        0.82026        0.77083   
O        0.29512        0.82026        0.8125    
O        0.28075        0.81061        0.83333   
O        0.28075        0.81061        0.75      
O        0.26684        0.80031        0.77083   
O        0.26684        0.80031        0.8125    
O        0.25341        0.78938        0.83333   
O        0.25341        0.78938        0.75      
O        0.2405         0.77785        0.77083   
O        0.2405         0.77785        0.8125    
O        0.22812        0.76576        0.83333   
O        0.22812        0.76576        0.75      
O        0.21631        0.75312        0.77083   
O        0.21631        0.75312        0.8125    
O        0.20508        0.73994        0.83333   
O        0.20508        0.73994        0.75      
O        0.19447        0.72627        0.77083   
O        0.19447        0.72627        0.8125    
O        0.18449        0.71213        0.83333   
O        0.18449        0.71213        0.75      
O        0.17516        0.69754        0.77083   
O        0.17516        0.69754        0.8125    
O        0.1665         0.68256        0.83333   
O        0.1665         0.68256        0.75      
O        0.15854        0.66718        0.77083   
O        0.15854        0.66718        0.8125    
O        0.15128        0.65146        0.83333   
O        0.15128        0.65146        0.75      
O        0.14475        0.63544        0.77083   
O        0.14475        0.63544        0.8125    
O        0.13896        0.61913        0.83333   
O        0.13896        0.61913        0.75      
O        0.1339         0.60257        0.77083   
O        0.1339         0.60257        0.8125    
O        0.12961        0.58581        0.83333   
O        0.12961        0.58581        0.75      
O        0.12609        0.56885        0.77083   
O        0.12609        0.56885        0.8125    
O        0.12334        0.55177        0.83333   
O        0.12334        0.55177        0.75      
O        0.12138        0.53457        0.77083   
O        0.12138        0.53457        0.8125    
O        0.1202         0.51731        0.83333   
O        0.1202         0.51731        0.75      
O        0.1198         0.5            0.77083   
O        0.1198         0.5            0.8125    
O        0.1202         0.48269        0.83333   
O        0.1202         0.48269        0.75      
O        0.12138        0.46543        0.77083   
O        0.12138        0.46543        0.8125    
O        0.12334        0.44823        0.83333   
O        0.12334        0.44823        0.75      
O        0.12609        0.43115        0.77083   
O        0.12609        0.43115        0.8125    
O        0.12961        0.41419        0.83333   
O        0.12961        0.41419        0.75      
O        0.1339         0.39743        0.77083   
O        0.1339         0.39743        0.8125    
O        0.13896        0.38087        0.83333   
O        0.13896        0.38087        0.75      
O        0.14475        0.36456        0.77083   
O        0.14475        0.36456        0.8125    
O        0.15128        0.34854        0.83333   
O        0.15128        0.34854        0.75      
O        0.15854        0.33282        0.77083   
O        0.15854        0.33282        0.8125    
O        0.1665         0.31744        0.83333   
O        0.1665         0.31744        0.75      
O        0.17516        0.30246        0.77083   
O        0.17516        0.30246        0.8125    
O        0.18449        0.28787        0.83333   
O        0.18449        0.28787        0.75      
O        0.19447        0.27373        0.77083   
O        0.19447        0.27373        0.8125    
O        0.20508        0.26006        0.83333   
O        0.20508        0.26006        0.75      
O        0.21631        0.24688        0.77083   
O        0.21631        0.24688        0.8125    
O        0.22812        0.23424        0.83333   
O        0.22812        0.23424        0.75      
O        0.2405         0.22215        0.77083   
O        0.2405         0.22215        0.8125    
O        0.25341        0.21062        0.83333   
O        0.25341        0.21062        0.75      
O        0.26684        0.19969        0.77083   
O        0.26684        0.19969        0.8125    
O        0.28075        0.18939        0.83333   
O        0.28075        0.18939        0.75      
O        0.29512        0.17974        0.77083   
O        0.29512        0.17974        0.8125    
O        0.3099         0.17074        0.83333   
O        0.3099         0.17074        0.75      
O        0.32508        0.16243        0.77083   
O        0.32508        0.16243        0.8125    
O        0.34063        0.15482        0.83333   
O        0.34063        0.15482        0.75      
O        0.35651        0.14792        0.77083   
O        0.35651        0.14792        0.8125    
O        0.37268        0.14176        0.83333   
O        0.37268        0.14176        0.75      
O        0.38912        0.13634        0.77083   
O        0.38912        0.13634        0.8125    
O        0.40579        0.13166        0.83333   
O        0.40579        0.13166        0.75      
O        0.42265        0.12775        0.77083   
O        0.42265        0.12775        0.8125    
O        0.43967        0.12463        0.83333   
O        0.43967        0.12463        0.75      
O        0.45681        0.12227        0.77083   
O        0.45681        0.12227        0.8125    
O        0.47405        0.12069        0.83333   
O        0.47405        0.12069        0.75      
O        0.49135        0.1199         0.77083   
O        0.49135        0.1199         0.8125    
O        0.50865        0.1199         0.83333   
O        0.50865        0.1199         0.75      
O        0.52595        0.12069        0.77083   
O        0.52595        0.12069        0.8125    
O        0.54319        0.12227        0.83333   
O        0.54319        0.12227        0.75      
O        0.56033        0.12463        0.77083   
O        0.56033        0.12463        0.8125    
O        0.57735        0.12775        0.83333   
O        0.57735        0.12775        0.75      
O        0.59421        0.13166        0.77083   
O        0.59421        0.13166        0.8125    
O        0.61088        0.13634        0.83333   
O        0.61088        0.13634        0.75      
O        0.62732        0.14176        0.77083   
O        0.62732        0.14176        0.8125    
O        0.64349        0.14792        0.83333   
O        0.64349        0.14792        0.75      
O        0.65937        0.15482        0.77083   
O        0.65937        0.15482        0.8125    
O        0.67492        0.16243        0.83333   
O        0.67492        0.16243        0.75      
O        0.6901         0.17074        0.77083   
O        0.6901         0.17074        0.8125    
O        0.70488        0.17974        0.83333   
O        0.70488        0.17974        0.75      
O        0.71925        0.18939        0.77083   
O        0.71925        0.18939        0.8125    
O        0.73316        0.19969        0.83333   
O        0.73316        0.19969        0.75      
O        0.74659        0.21062        0.77083   
O        0.74659        0.21062        0.8125    
O        0.7595         0.22215        0.83333   
O        0.7595         0.22215        0.75      
O        0.77188        0.23424        0.77083   
O        0.77188        0.23424        0.8125    
O        0.78369        0.24688        0.83333   
O        0.78369        0.24688        0.75      
O        0.79492        0.26006        0.77083   
O        0.79492        0.26006        0.8125    
O        0.80553        0.27373        0.83333   
O        0.80553        0.27373        0.75      
O        0.81551        0.28787        0.77083   
O        0.81551        0.28787        0.8125    
O        0.82484        0.30246        0.83333   
O        0.82484        0.30246        0.75      
O        0.8335         0.31744        0.77083   
O        0.8335         0.31744        0.8125    
O        0.84146        0.33282        0.83333   
O        0.84146        0.33282        0.75      
O        0.84872        0.34854        0.77083   
O        0.84872        0.34854        0.8125    
O        0.85525        0.36456        0.83333   
O        0.85525        0.36456        0.75      
O        0.86104        0.38087        0.77083   
O        0.86104        0.38087        0.8125    
O        0.8661         0.39743        0.83333   
O        0.8661         0.39743        0.75      
O        0.87039        0.41419        0.77083   
O        0.87039        0.41419        0.8125    
O        0.87391        0.43115        0.83333   
O        0.87391        0.43115        0.75      
O        0.87666        0.44823        0.77083   
O        0.87666        0.44823        0.8125    
O        0.87862        0.46543        0.83333   
O        0.87862        0.46543        0.75      
O        0.8798         0.48269        0.77083   
O        0.8798         0.48269        0.8125    
O        0.8802         0.5            0.83333   
O        0.8802         0.5            0.875     
O        0.8798         0.51731        0.89583   
O        0.8798         0.51731        0.9375    
O        0.87862        0.53457        0.95833   
O        0.87862        0.53457        0.875     
O        0.87666        0.55177        0.89583   
O        0.87666        0.55177        0.9375    
O        0.87391        0.56885        0.95833   
O        0.87391        0.56885        0.875     
O        0.87039        0.58581        0.89583   
O        0.87039        0.58581        0.9375    
O        0.8661         0.60257        0.95833   
O        0.8661         0.60257        0.875     
O        0.86104        0.61913        0.89583   
O        0.86104        0.61913        0.9375    
O        0.85525        0.63544        0.95833   
O        0.85525        0.63544        0.875     
O        0.84872        0.65146        0.89583   
O        0.84872        0.65146        0.9375    
O        0.84146        0.66718        0.95833   
O        0.84146        0.66718        0.875     
O        0.8335         0.68256        0.89583   
O        0.8335         0.68256        0.9375    
O        0.82484        0.69754        0.95833   
O        0.82484        0.69754        0.875     
O        0.81551        0.71213        0.89583   
O        0.81551        0.71213        0.9375    
O        0.80553        0.72627        0.95833   
O        0.80553        0.72627        0.875     
O        0.79492        0.73994        0.89583   
O        0.79492        0.73994        0.9375    
O        0.78369        0.75312        0.95833   
O        0.78369        0.75312        0.875     
O        0.77188        0.76576        0.89583   
O        0.77188        0.76576        0.9375    
O        0.7595         0.77785        0.95833   
O        0.7595         0.77785        0.875     
O        0.74659        0.78938        0.89583   
O        0.74659        0.78938        0.9375    
O        0.73316        0.80031        0.95833   
O        0.73316        0.80031        0.875     
O        0.71925        0.81061        0.89583   
O        0.71925        0.81061        0.9375    
O        0.70488        0.82026        0.95833   
O        0.70488        0.82026        0.875     
O        0.6901         0.82926        0.89583   
O        0.6901         0.82926        0.9375    
O        0.67492        0.83757        0.95833   
O        0.67492        0.83757        0.875     
O        0.65937        0.84518        0.89583   
O        0.65937        0.84518        0.9375    
O        0.64349        0.85208        0.95833   
O        0.64349        0.85208        0.875     
O        0.62732        0.85824        0.89583   
O        0.62732        0.85824        0.9375    
O        0.61088        0.86366        0.95833   
O        0.61088        0.86366        0.875     
O        0.59421        0.86834        0.89583   
O        0.59421        0.86834        0.9375    
O        0.57735        0.87225        0.95833   
O        0.57735        0.87225        0.875     
O        0.56033        0.87537        0.89583   
O        0.56033        0.87537        0.9375    
O        0.54319        0.87773        0.95833   
O        0.54319        0.87773        0.875     
O        0.52595        0.87931        0.89583   
O        0.52595        0.87931        0.9375    
O        0.50865        0.8801         0.95833   
O        0.50865        0.8801         0.875     
O        0.49135        0.8801         0.89583   
O        0.49135        0.8801         0.9375    
O        0.47405        0.87931        0.95833   
O        0.47405        0.87931        0.875     
O        0.45681        0.87773        0.89583   
O        0.45681        0.87773        0.9375    
O        0.43967        0.87537        0.95833   
O        0.43967        0.87537        0.875     
O        0.42265        0.87225        0.89583   
O        0.42265        0.87225        0.9375    
O        0.40579        0.86834        0.95833   
O        0.40579        0.86834        0.875     
O        0.38912        0.86366        0.89583   
O        0.38912        0.86366        0.9375    
O        0.37268        0.85824        0.95833   
O        0.37268        0.85824        0.875     
O        0.35651        0.85208        0.89583   
O        0.35651        0.85208        0.9375    
O        0.34063        0.84518        0.95833   
O        0.34063        0.84518        0.875     
O        0.32508        0.83757        0.89583   
O        0.32508        0.83757        0.9375    
O        0.3099         0.82926        0.95833   
O        0.3099         0.82926        0.875     
O        0.29512        0.82026        0.89583   
O        0.29512        0.82026        0.9375    
O        0.28075        0.81061        0.95833   
O        0.28075        0.81061        0.875     
O        0.26684        0.80031        0.89583   
O        0.26684        0.80031        0.9375    
O        0.25341        0.78938        0.95833   
O        0.25341        0.78938        0.875     
O        0.2405         0.77785        0.89583   
O        0.2405         0.77785        0.9375    
O        0.22812        0.76576        0.95833   
O        0.22812        0.76576        0.875     
O        0.21631        0.75312        0.89583   
O        0.21631        0.75312        0.9375    
O        0.20508        0.73994        0.95833   
O        0.20508        0.73994        0.875     
O        0.19447        0.72627        0.89583   
O        0.19447        0.72627        0.9375    
O        0.18449        0.71213        0.95833   
O        0.18449        0.71213        0.875     
O        0.17516        0.69754        0.89583   
O        0.17516        0.69754        0.9375    
O        0.1665         0.68256        0.95833   
O        0.1665         0.68256        0.875     
O        0.15854        0.66718        0.89583   
O        0.15854        0.66718        0.9375    
O        0.15128        0.65146        0.95833   
O        0.15128        0.65146        0.875     
O        0.14475        0.63544        0.89583   
O        0.14475        0.63544        0.9375    
O        0.13896        0.61913        0.95833   
O        0.13896        0.61913        0.875     
O        0.1339         0.60257        0.89583   
O        0.1339         0.60257        0.9375    
O        0.12961        0.58581        0.95833   
O        0.12961        0.58581        0.875     
O        0.12609        0.56885        0.89583   
O        0.12609        0.56885        0.9375    
O        0.12334        0.55177        0.95833   
O        0.12334        0.55177        0.875     
O        0.12138        0.53457        0.89583   
O        0.12138        0.53457        0.9375    
O        0.1202         0.51731        0.95833   
O        0.1202         0.51731        0.875     
O        0.1198         0.5            0.89583   
O        0.1198         0.5            0.9375    
O        0.1202         0.48269        0.95833   
O        0.1202         0.48269        0.875     
O        0.12138        0.46543        0.89583   
O        0.12138        0.46543        0.9375    
O        0.12334        0.44823        0.95833   
O        0.12334        0.44823        0.875     
O        0.12609        0.43115        0.89583   
O        0.12609        0.43115        0.9375    
O        0.12961        0.41419        0.95833   
O        0.12961        0.41419        0.875     
O        0.1339         0.39743        0.89583   
O        0.1339         0.39743        0.9375    
O        0.13896        0.38087        0.95833   
O        0.13896        0.38087        0.875     
O        0.14475        0.36456        0.89583   
O        0.14475        0.36456        0.9375    
O        0.15128        0.34854        0.95833   
O        0.15128        0.34854        0.875     
O        0.15854        0.33282        0.89583   
O        0.15854        0.33282        0.9375    
O        0.1665         0.31744        0.95833   
O        0.1665         0.31744        0.875     
O        0.17516        0.30246        0.89583   
O        0.17516        0.30246        0.9375    
O        0.18449        0.28787        0.95833   
O        0.18449        0.28787        0.875     
O        0.19447        0.27373        0.89583   
O        0.19447        0.27373        0.9375    
O        0.20508        0.26006        0.95833   
O        0.20508        0.26006        0.875     
O        0.21631        0.24688        0.89583   
O        0.21631        0.24688        0.9375    
O        0.22812        0.23424        0.95833   
O        0.22812        0.23424        0.875     
O        0.2405         0.22215        0.89583   
O        0.2405         0.22215        0.9375    
O        0.25341        0.21062        0.95833   
O        0.25341        0.21062        0.875     
O        0.26684        0.19969        0.89583   
O        0.26684        0.19969        0.9375    
O        0.28075        0.18939        0.95833   
O        0.28075        0.18939        0.875     
O        0.29512        0.17974        0.89583   
O        0.29512        0.17974        0.9375    
O        0.3099         0.17074        0.95833   
O        0.3099         0.17074        0.875     
O        0.32508        0.16243        0.89583   
O        0.32508        0.16243        0.9375    
O        0.34063        0.15482        0.95833   
O        0.34063        0.15482        0.875     
O        0.35651        0.14792        0.89583   
O        0.35651        0.14792        0.9375    
O        0.37268        0.14176        0.95833   
O        0.37268        0.14176        0.875     
O        0.38912        0.13634        0.89583   
O        0.38912        0.13634        0.9375    
O        0.40579        0.13166        0.95833   
O        0.40579        0.13166        0.875     
O        0.42265        0.12775        0.89583   
O        0.42265        0.12775        0.9375    
O        0.43967        0.12463        0.95833   
O        0.43967        0.12463        0.875     
O        0.45681        0.12227        0.89583   
O        0.45681        0.12227        0.9375    
O        0.47405        0.12069        0.95833   
O        0.47405        0.12069        0.875     
O        0.49135        0.1199         0.89583   
O        0.49135        0.1199         0.9375    
O        0.50865        0.1199         0.95833   
O        0.50865        0.1199         0.875     
O        0.52595        0.12069        0.89583   
O        0.52595        0.12069        0.9375    
O        0.54319        0.12227        0.95833   
O        0.54319        0.12227        0.875     
O        0.56033        0.12463        0.89583   
O        0.56033        0.12463        0.9375    
O        0.57735        0.12775        0.95833   
O        0.57735        0.12775        0.875     
O        0.59421        0.13166        0.89583   
O        0.59421        0.13166        0.9375    
O        0.61088        0.13634        0.95833   
O        0.61088        0.13634        0.875     
O        0.62732        0.14176        0.89583   
O        0.62732        0.14176        0.9375    
O        0.64349        0.14792        0.95833   
O        0.64349        0.14792        0.875     
O        0.65937        0.15482        0.89583   
O        0.65937        0.15482        0.9375    
O        0.67492        0.16243        0.95833   
O        0.67492        0.16243        0.875     
O        0.6901         0.17074        0.89583   
O        0.6901         0.17074        0.9375    
O        0.70488        0.17974        0.95833   
O        0.70488        0.17974        0.875     
O        0.71925        0.18939        0.89583   
O        0.71925        0.18939        0.9375    
O        0.73316        0.19969        0.95833   
O        0.73316        0.19969        0.875     
O        0.74659        0.21062        0.89583   
O        0.74659        0.21062        0.9375    
O        0.7595         0.22215        0.95833   
O        0.7595         0.22215        0.875     
O        0.77188        0.23424        0.89583   
O        0.77188        0.23424        0.9375    
O        0.78369        0.24688        0.95833   
O        0.78369        0.24688        0.875     
O        0.79492        0.26006        0.89583   
O        0.79492        0.26006        0.9375    
O        0.80553        0.27373        0.95833   
O        0.80553        0.27373        0.875     
O        0.81551        0.28787        0.89583   
O        0.81551        0.28787        0.9375    
O        0.82484        0.30246        0.95833   
O        0.82484        0.30246        0.875     
O        0.8335         0.31744        0.89583   
O        0.8335         0.31744        0.9375    
O        0.84146        0.33282        0.95833   
O        0.84146        0.33282        0.875     
O        0.84872        0.34854        0.89583   
O        0.84872        0.34854        0.9375    
O        0.85525        0.36456        0.95833   
O        0.85525        0.36456        0.875     
O        0.86104        0.38087        0.89583   
O        0.86104        0.38087        0.9375    
O        0.8661         0.39743        0.95833   
O        0.8661         0.39743        0.875     
O        0.87039        0.41419        0.89583   
O        0.87039        0.41419        0.9375    
O        0.87391        0.43115        0.95833   
O        0.87391        0.43115        0.875     
O        0.87666        0.44823        0.89583   
O        0.87666        0.44823        0.9375    
O        0.87862        0.46543        0.95833   
O        0.87862        0.46543        0.875     
O        0.8798         0.48269        0.89583   
O        0.8798         0.48269        0.9375    
O        0.8802         0.5            0.95833   
